ligand.pdb
 OpenBabel03071410353D

 75 78  0  0  1  0  0  0  0  0999 V2000
   56.1500   34.0410   27.3160 C   0  0  2  0  0  0  0  0  0  0  0  0
   56.7780   33.9060   28.7080 C   0  0  1  0  0  0  0  0  0  0  0  0
   57.5640   32.6010   28.8800 C   0  0  0  0  0  0  0  0  0  0  0  0
   57.5850   35.1200   29.1810 C   0  0  0  0  0  0  0  0  0  0  0  0
   57.8430   35.0350   30.6900 C   0  0  0  0  0  0  0  0  0  0  0  0
   56.5470   34.9240   31.5050 C   0  0  1  0  0  0  0  0  0  0  0  0
   55.6590   33.7760   31.0050 C   0  0  1  0  0  0  0  0  0  0  0  0
   54.2920   33.7980   31.6970 C   0  0  0  0  0  0  0  0  0  0  0  0
   54.3830   34.0130   33.0680 C   0  0  0  0  0  0  0  0  0  0  0  0
   55.4930   34.4930   33.7540 C   0  0  0  0  0  0  0  0  0  0  0  0
   56.7950   34.8400   33.0180 C   0  0  1  0  0  0  0  0  0  0  0  0
   57.8220   33.7500   33.3420 C   0  0  0  0  0  0  0  0  0  0  0  0
   57.2940   36.1940   33.5370 C   0  0  0  0  0  0  0  0  0  0  0  0
   57.3230   36.2940   35.0670 C   0  0  0  0  0  0  0  0  0  0  0  0
   55.9200   36.0910   35.6470 C   0  0  1  0  0  0  0  0  0  0  0  0
   55.4080   34.6980   35.2690 C   0  0  0  0  0  0  0  0  0  0  0  0
   55.9540   36.2200   37.0710 O   0  0  0  0  0  0  0  0  0  0  0  0
   55.4640   33.9090   29.4910 C   0  0  2  0  0  0  0  0  0  0  0  0
   54.6730   32.7930   28.8090 C   0  0  0  0  0  0  0  0  0  0  0  0
   54.9490   33.0860   27.3310 C   0  0  0  0  0  0  0  0  0  0  0  0
   57.0540   33.8090   26.0980 C   0  0  1  0  0  0  0  0  0  0  0  0
   56.1820   33.7630   24.8380 C   0  0  0  0  0  0  0  0  0  0  0  0
   56.9440   33.5320   23.5310 C   0  0  0  0  0  0  0  0  0  0  0  0
   55.9370   33.2830   22.4040 C   0  0  0  0  0  0  0  0  0  0  0  0
   56.5680   33.2100   21.0100 C   0  0  0  0  0  0  0  0  0  0  0  0
   55.4750   32.9220   19.9790 C   0  0  0  0  0  0  0  0  0  0  0  0
   57.1710   34.4740   20.7240 O   0  0  0  0  0  0  0  0  0  0  0  0
   57.6260   32.1060   20.9440 C   0  0  0  0  0  0  0  0  0  0  0  0
   58.1190   34.9020   25.9830 C   0  0  0  0  0  0  0  0  0  0  0  0
   55.8920   35.0690   27.1680 H   0  0  0  0  0  0  0  0  0  0  0  0
   58.4700   32.6530   28.3140 H   0  0  0  0  0  0  0  0  0  0  0  0
   56.9740   31.7680   28.5590 H   0  0  0  0  0  0  0  0  0  0  0  0
   57.8030   32.4680   29.9150 H   0  0  0  0  0  0  0  0  0  0  0  0
   57.0610   36.0230   28.9480 H   0  0  0  0  0  0  0  0  0  0  0  0
   58.5270   35.1240   28.6730 H   0  0  0  0  0  0  0  0  0  0  0  0
   58.3980   35.8920   31.0100 H   0  0  0  0  0  0  0  0  0  0  0  0
   58.4060   34.1420   30.8660 H   0  0  0  0  0  0  0  0  0  0  0  0
   56.0130   35.8370   31.3440 H   0  0  0  0  0  0  0  0  0  0  0  0
   56.1410   32.8490   31.2350 H   0  0  0  0  0  0  0  0  0  0  0  0
   53.7790   32.8780   31.5100 H   0  0  0  0  0  0  0  0  0  0  0  0
   53.7450   34.6210   31.2860 H   0  0  0  0  0  0  0  0  0  0  0  0
   53.5460   33.7950   33.6310 H   0  0  0  0  0  0  0  0  0  0  0  0
   58.7420   33.9660   32.8410 H   0  0  0  0  0  0  0  0  0  0  0  0
   57.4530   32.7920   33.0410 H   0  0  0  0  0  0  0  0  0  0  0  0
   57.9930   33.7300   34.3980 H   0  0  0  0  0  0  0  0  0  0  0  0
   56.6830   36.9770   33.1390 H   0  0  0  0  0  0  0  0  0  0  0  0
   58.3060   36.2930   33.2060 H   0  0  0  0  0  0  0  0  0  0  0  0
   57.7090   37.2460   35.3650 H   0  0  0  0  0  0  0  0  0  0  0  0
   57.9620   35.5240   35.4460 H   0  0  0  0  0  0  0  0  0  0  0  0
   55.2640   36.8350   35.2460 H   0  0  0  0  0  0  0  0  0  0  0  0
   55.9780   33.9470   35.7740 H   0  0  0  0  0  0  0  0  0  0  0  0
   54.3840   34.6160   35.5690 H   0  0  0  0  0  0  0  0  0  0  0  0
   55.0600   36.3990   37.4020 H   0  0  0  0  0  0  0  0  0  0  0  0
   54.9330   34.8370   29.4570 H   0  0  0  0  0  0  0  0  0  0  0  0
   55.0280   31.8250   29.0940 H   0  0  0  0  0  0  0  0  0  0  0  0
   53.6340   32.7760   29.0640 H   0  0  0  0  0  0  0  0  0  0  0  0
   55.1700   32.1850   26.7970 H   0  0  0  0  0  0  0  0  0  0  0  0
   54.0970   33.5190   26.8500 H   0  0  0  0  0  0  0  0  0  0  0  0
   57.5690   32.8780   26.2130 H   0  0  0  0  0  0  0  0  0  0  0  0
   55.4370   33.0040   24.9520 H   0  0  0  0  0  0  0  0  0  0  0  0
   55.7490   34.7380   24.7510 H   0  0  0  0  0  0  0  0  0  0  0  0
   57.5560   34.3810   23.3020 H   0  0  0  0  0  0  0  0  0  0  0  0
   57.5820   32.6800   23.6350 H   0  0  0  0  0  0  0  0  0  0  0  0
   55.4000   32.3780   22.5990 H   0  0  0  0  0  0  0  0  0  0  0  0
   55.2810   34.1280   22.3930 H   0  0  0  0  0  0  0  0  0  0  0  0
   55.9100   32.8700   19.0020 H   0  0  0  0  0  0  0  0  0  0  0  0
   54.7250   33.6850   20.0100 H   0  0  0  0  0  0  0  0  0  0  0  0
   55.0130   31.9850   20.2080 H   0  0  0  0  0  0  0  0  0  0  0  0
   57.5770   34.4480   19.8430 H   0  0  0  0  0  0  0  0  0  0  0  0
   58.0500   32.0760   19.9630 H   0  0  0  0  0  0  0  0  0  0  0  0
   57.1900   31.1600   21.1880 H   0  0  0  0  0  0  0  0  0  0  0  0
   58.3970   32.3150   21.6550 H   0  0  0  0  0  0  0  0  0  0  0  0
   57.6440   35.8540   25.8660 H   0  0  0  0  0  0  0  0  0  0  0  0
   58.7640   34.7050   25.1520 H   0  0  0  0  0  0  0  0  0  0  0  0
   58.7110   34.9110   26.8750 H   0  0  0  0  0  0  0  0  0  0  0  0
  1 30  1  6  0  0  0
  1 20  1  0  0  0  0
  1  2  1  0  0  0  0
  2  3  1  1  0  0  0
  2  4  1  0  0  0  0
  2 18  1  0  0  0  0
  3 33  1  0  0  0  0
  4  5  1  0  0  0  0
  5 37  1  0  0  0  0
  5 36  1  0  0  0  0
  5  6  1  0  0  0  0
  6 38  1  6  0  0  0
  6 11  1  0  0  0  0
  7 39  1  1  0  0  0
  7  6  1  0  0  0  0
  7  8  1  0  0  0  0
  8  9  1  0  0  0  0
  9 42  1  0  0  0  0
  9 10  2  0  0  0  0
 10 16  1  0  0  0  0
 11 12  1  1  0  0  0
 11 13  1  0  0  0  0
 11 10  1  0  0  0  0
 12 45  1  0  0  0  0
 13 14  1  0  0  0  0
 14 48  1  0  0  0  0
 14 49  1  0  0  0  0
 14 15  1  0  0  0  0
 15 50  1  6  0  0  0
 15 17  1  0  0  0  0
 16 52  1  0  0  0  0
 16 15  1  0  0  0  0
 16 51  1  0  0  0  0
 17 53  1  0  0  0  0
 18 54  1  6  0  0  0
 18  7  1  0  0  0  0
 19 56  1  0  0  0  0
 19 55  1  0  0  0  0
 19 18  1  0  0  0  0
 20 19  1  0  0  0  0
 21 59  1  1  0  0  0
 21  1  1  0  0  0  0
 22 60  1  0  0  0  0
 22 21  1  0  0  0  0
 23 63  1  0  0  0  0
 23 22  1  0  0  0  0
 24 64  1  0  0  0  0
 24 23  1  0  0  0  0
 25 24  1  0  0  0  0
 26 67  1  0  0  0  0
 26 68  1  0  0  0  0
 26 25  1  0  0  0  0
 27 25  1  0  0  0  0
 28 25  1  0  0  0  0
 28 71  1  0  0  0  0
 28 72  1  0  0  0  0
 29 21  1  0  0  0  0
 29 75  1  0  0  0  0
 31  3  1  0  0  0  0
 32  3  1  0  0  0  0
 34  4  1  0  0  0  0
 35  4  1  0  0  0  0
 40  8  1  0  0  0  0
 41  8  1  0  0  0  0
 43 12  1  0  0  0  0
 44 12  1  0  0  0  0
 46 13  1  0  0  0  0
 47 13  1  0  0  0  0
 57 20  1  0  0  0  0
 58 20  1  0  0  0  0
 61 22  1  0  0  0  0
 62 23  1  0  0  0  0
 65 24  1  0  0  0  0
 66 26  1  0  0  0  0
 69 27  1  0  0  0  0
 70 28  1  0  0  0  0
 73 29  1  0  0  0  0
 74 29  1  0  0  0  0
M  END
