CVX
     RDKit          3D

 43 42  0  0  0  0  0  0  0  0999 V2000
   -0.7282    1.9009   -0.3532 O   0  0  0  0  0  0  0  0  0  0  0  0
    0.7541    1.8841   -0.0872 P   0  0  2  0  0  0  0  0  0  0  0  0
    1.4379    0.6116    0.6349 O   0  0  0  0  0  0  0  0  0  0  0  0
    1.3550    0.5101    2.0478 C   0  0  0  0  0  0  0  0  0  0  0  0
    2.1387   -0.7077    2.5264 C   0  0  0  0  0  0  0  0  0  0  0  0
    3.6594   -0.5172    2.5244 C   0  0  0  0  0  0  0  0  0  0  0  0
    4.2694   -0.3411    1.1431 C   0  0  0  0  0  0  0  0  0  0  0  0
    1.1209    0.8857   -2.1939 S   0  0  0  0  0  0  0  0  0  0  0  0
   -0.5298    0.2937   -2.6566 C   0  0  0  0  0  0  0  0  0  0  0  0
   -1.0376   -0.7729   -1.6768 C   0  0  0  0  0  0  0  0  0  0  0  0
   -2.5521   -0.9628   -1.7970 N   0  0  1  0  0  0  0  0  0  0  0  0
   -2.9747   -2.3801   -1.4545 C   0  0  0  0  0  0  0  0  0  0  0  0
   -2.7629   -2.7223    0.0087 C   0  0  0  0  0  0  0  0  0  0  0  0
   -3.3084    0.1359   -1.0565 C   0  0  0  0  0  0  0  0  0  0  0  0
   -4.7970    0.0675   -1.3438 C   0  0  0  0  0  0  0  0  0  0  0  0
    1.7608    3.2710   -0.5692 C   0  0  0  0  0  0  0  0  0  0  0  0
    0.3009    0.3909    2.3190 H   0  0  0  0  0  0  0  0  0  0  0  0
    1.7324    1.4231    2.5177 H   0  0  0  0  0  0  0  0  0  0  0  0
    1.8324   -0.9320    3.5552 H   0  0  0  0  0  0  0  0  0  0  0  0
    1.8846   -1.5794    1.9112 H   0  0  0  0  0  0  0  0  0  0  0  0
    3.9269    0.3415    3.1512 H   0  0  0  0  0  0  0  0  0  0  0  0
    4.1137   -1.3997    2.9912 H   0  0  0  0  0  0  0  0  0  0  0  0
    3.9903    0.6193    0.7009 H   0  0  0  0  0  0  0  0  0  0  0  0
    3.9569   -1.1430    0.4672 H   0  0  0  0  0  0  0  0  0  0  0  0
    5.3620   -0.3625    1.2116 H   0  0  0  0  0  0  0  0  0  0  0  0
   -0.4788   -0.1276   -3.6662 H   0  0  0  0  0  0  0  0  0  0  0  0
   -1.1914    1.1617   -2.7068 H   0  0  0  0  0  0  0  0  0  0  0  0
   -0.5690   -1.7331   -1.9222 H   0  0  0  0  0  0  0  0  0  0  0  0
   -0.8347   -0.5509   -0.6257 H   0  0  0  0  0  0  0  0  0  0  0  0
   -2.7844   -0.8486   -2.7922 H   0  0  0  0  0  0  0  0  0  0  0  0
   -4.0245   -2.4896   -1.7420 H   0  0  0  0  0  0  0  0  0  0  0  0
   -2.3914   -3.0472   -2.0989 H   0  0  0  0  0  0  0  0  0  0  0  0
   -3.3903   -2.1119    0.6644 H   0  0  0  0  0  0  0  0  0  0  0  0
   -3.0327   -3.7690    0.1841 H   0  0  0  0  0  0  0  0  0  0  0  0
   -1.7194   -2.5968    0.3116 H   0  0  0  0  0  0  0  0  0  0  0  0
   -2.9248    1.0926   -1.4189 H   0  0  0  0  0  0  0  0  0  0  0  0
   -3.0901    0.0474    0.0117 H   0  0  0  0  0  0  0  0  0  0  0  0
   -5.2590   -0.8124   -0.8868 H   0  0  0  0  0  0  0  0  0  0  0  0
   -5.2963    0.9481   -0.9265 H   0  0  0  0  0  0  0  0  0  0  0  0
   -4.9949    0.0464   -2.4203 H   0  0  0  0  0  0  0  0  0  0  0  0
    1.3418    3.7555   -1.4558 H   0  0  0  0  0  0  0  0  0  0  0  0
    1.8132    4.0177    0.2273 H   0  0  0  0  0  0  0  0  0  0  0  0
    2.7790    2.9484   -0.8048 H   0  0  0  0  0  0  0  0  0  0  0  0
  1  2  2  0
  2  3  1  1
  3  4  1  0
  4  5  1  0
  5  6  1  0
  6  7  1  0
  2  8  1  0
  8  9  1  0
  9 10  1  0
 10 11  1  0
 11 12  1  0
 12 13  1  0
 11 14  1  0
 14 15  1  0
  2 16  1  0
  4 17  1  0
  4 18  1  0
  5 19  1  0
  5 20  1  0
  6 21  1  0
  6 22  1  0
  7 23  1  0
  7 24  1  0
  7 25  1  0
  9 26  1  0
  9 27  1  0
 10 28  1  0
 10 29  1  0
 11 30  1  1
 12 31  1  0
 12 32  1  0
 13 33  1  0
 13 34  1  0
 13 35  1  0
 14 36  1  0
 14 37  1  0
 15 38  1  0
 15 39  1  0
 15 40  1  0
 16 41  1  0
 16 42  1  0
 16 43  1  0
M  CHG  1  11   1
M  END
$$$$
