CVX
     RDKit          3D

 43 42  0  0  0  0  0  0  0  0999 V2000
    1.3110    0.5782   -0.7319 O   0  0  0  0  0  0  0  0  0  0  0  0
    1.5270    1.6919    0.2497 P   0  0  1  0  0  0  0  0  0  0  0  0
    1.6339    1.4894    1.8523 O   0  0  0  0  0  0  0  0  0  0  0  0
    2.3745    0.3589    2.3115 C   0  0  0  0  0  0  0  0  0  0  0  0
    2.4051    0.3615    3.8345 C   0  0  0  0  0  0  0  0  0  0  0  0
    3.2308    1.5261    4.4000 C   0  0  0  0  0  0  0  0  0  0  0  0
    3.1697    1.5571    5.9197 C   0  0  0  0  0  0  0  0  0  0  0  0
   -0.8080    1.9759    0.4413 S   0  0  0  0  0  0  0  0  0  0  0  0
   -1.0543    2.7614    2.0529 C   0  0  0  0  0  0  0  0  0  0  0  0
   -2.4597    2.5651    2.6313 C   0  0  0  0  0  0  0  0  0  0  0  0
   -3.6130    3.2647    1.9157 N   0  0  1  0  0  0  0  0  0  0  0  0
   -3.5353    4.7781    1.8861 C   0  0  0  0  0  0  0  0  0  0  0  0
   -2.9008    5.3479    0.6305 C   0  0  0  0  0  0  0  0  0  0  0  0
   -4.0793    2.5781    0.6418 C   0  0  0  0  0  0  0  0  0  0  0  0
   -5.5426    2.8914    0.3796 C   0  0  0  0  0  0  0  0  0  0  0  0
    1.6842    3.3758   -0.3294 C   0  0  0  0  0  0  0  0  0  0  0  0
    1.8669   -0.5522    1.9660 H   0  0  0  0  0  0  0  0  0  0  0  0
    3.3908    0.3896    1.8999 H   0  0  0  0  0  0  0  0  0  0  0  0
    2.8294   -0.5922    4.1865 H   0  0  0  0  0  0  0  0  0  0  0  0
    1.3756    0.4351    4.2165 H   0  0  0  0  0  0  0  0  0  0  0  0
    2.8589    2.4872    4.0169 H   0  0  0  0  0  0  0  0  0  0  0  0
    4.2804    1.4273    4.0697 H   0  0  0  0  0  0  0  0  0  0  0  0
    3.8076    2.3543    6.3185 H   0  0  0  0  0  0  0  0  0  0  0  0
    3.4954    0.6060    6.3524 H   0  0  0  0  0  0  0  0  0  0  0  0
    2.1445    1.7506    6.2424 H   0  0  0  0  0  0  0  0  0  0  0  0
   -0.7847    3.8179    1.9939 H   0  0  0  0  0  0  0  0  0  0  0  0
   -0.3495    2.3010    2.7510 H   0  0  0  0  0  0  0  0  0  0  0  0
   -2.4782    2.9551    3.6564 H   0  0  0  0  0  0  0  0  0  0  0  0
   -2.7227    1.5019    2.6976 H   0  0  0  0  0  0  0  0  0  0  0  0
   -4.3892    3.0849    2.5675 H   0  0  0  0  0  0  0  0  0  0  0  0
   -2.9876    5.0927    2.7789 H   0  0  0  0  0  0  0  0  0  0  0  0
   -4.5627    5.1418    1.9822 H   0  0  0  0  0  0  0  0  0  0  0  0
   -3.5129    5.1581   -0.2579 H   0  0  0  0  0  0  0  0  0  0  0  0
   -2.8078    6.4379    0.7241 H   0  0  0  0  0  0  0  0  0  0  0  0
   -1.9057    4.9468    0.4390 H   0  0  0  0  0  0  0  0  0  0  0  0
   -3.4474    2.8972   -0.1880 H   0  0  0  0  0  0  0  0  0  0  0  0
   -3.9650    1.4993    0.7918 H   0  0  0  0  0  0  0  0  0  0  0  0
   -6.1666    2.5712    1.2186 H   0  0  0  0  0  0  0  0  0  0  0  0
   -5.8841    2.3601   -0.5140 H   0  0  0  0  0  0  0  0  0  0  0  0
   -5.7062    3.9586    0.2154 H   0  0  0  0  0  0  0  0  0  0  0  0
    2.7382    3.6303   -0.4728 H   0  0  0  0  0  0  0  0  0  0  0  0
    1.2515    4.0783    0.3898 H   0  0  0  0  0  0  0  0  0  0  0  0
    1.1634    3.5007   -1.2820 H   0  0  0  0  0  0  0  0  0  0  0  0
  1  2  2  0
  2  3  1  1
  3  4  1  0
  4  5  1  0
  5  6  1  0
  6  7  1  0
  2  8  1  0
  8  9  1  0
  9 10  1  0
 10 11  1  0
 11 12  1  0
 12 13  1  0
 11 14  1  0
 14 15  1  0
  2 16  1  0
  4 17  1  0
  4 18  1  0
  5 19  1  0
  5 20  1  0
  6 21  1  0
  6 22  1  0
  7 23  1  0
  7 24  1  0
  7 25  1  0
  9 26  1  0
  9 27  1  0
 10 28  1  0
 10 29  1  0
 11 30  1  1
 12 31  1  0
 12 32  1  0
 13 33  1  0
 13 34  1  0
 13 35  1  0
 14 36  1  0
 14 37  1  0
 15 38  1  0
 15 39  1  0
 15 40  1  0
 16 41  1  0
 16 42  1  0
 16 43  1  0
M  CHG  1  11   1
M  END
$$$$
