CVX
     RDKit          3D

 43 42  0  0  0  0  0  0  0  0999 V2000
   -0.7393    1.9071   -0.3581 O   0  0  0  0  0  0  0  0  0  0  0  0
    0.7458    1.8789   -0.0862 P   0  0  0  0  0  0  0  0  0  0  0  0
    1.4530    0.6216    0.6328 O   0  0  0  0  0  0  0  0  0  0  0  0
    1.5526    0.5295    2.0545 C   0  0  0  0  0  0  0  0  0  0  0  0
    0.2457    0.0715    2.7066 C   0  0  0  0  0  0  0  0  0  0  0  0
   -0.3162   -1.1987    2.0703 C   0  0  0  0  0  0  0  0  0  0  0  0
   -1.6120   -1.6277    2.7397 C   0  0  0  0  0  0  0  0  0  0  0  0
    1.1125    0.8805   -2.1929 S   0  0  0  0  0  0  0  0  0  0  0  0
    0.0714   -0.6202   -2.0718 C   0  0  0  0  0  0  0  0  0  0  0  0
   -1.3801   -0.3098   -2.4678 C   0  0  0  0  0  0  0  0  0  0  0  0
   -1.4376    0.3844   -3.8278 N   0  0  1  0  0  0  0  0  0  0  0  0
   -1.1809   -0.5570   -4.9981 C   0  0  0  0  0  0  0  0  0  0  0  0
   -0.5142    0.2137   -6.1284 C   0  0  0  0  0  0  0  0  0  0  0  0
   -2.7031    1.2097   -4.0034 C   0  0  0  0  0  0  0  0  0  0  0  0
   -2.5016    2.6051   -3.4242 C   0  0  0  0  0  0  0  0  0  0  0  0
    1.7652    3.2600   -0.5632 C   0  0  0  0  0  0  0  0  0  0  0  0
    1.8637    1.4959    2.4903 H   0  0  0  0  0  0  0  0  0  0  0  0
    2.3469   -0.1946    2.2689 H   0  0  0  0  0  0  0  0  0  0  0  0
   -0.5088    0.8773    2.6298 H   0  0  0  0  0  0  0  0  0  0  0  0
    0.4323   -0.0911    3.7779 H   0  0  0  0  0  0  0  0  0  0  0  0
   -0.5022   -1.0396    1.0013 H   0  0  0  0  0  0  0  0  0  0  0  0
    0.4151   -2.0129    2.1463 H   0  0  0  0  0  0  0  0  0  0  0  0
   -2.0265   -2.5065    2.2258 H   0  0  0  0  0  0  0  0  0  0  0  0
   -2.3545   -0.8238    2.7120 H   0  0  0  0  0  0  0  0  0  0  0  0
   -1.4316   -1.8948    3.7886 H   0  0  0  0  0  0  0  0  0  0  0  0
    0.5130   -1.3894   -2.7165 H   0  0  0  0  0  0  0  0  0  0  0  0
    0.1082   -1.0008   -1.0474 H   0  0  0  0  0  0  0  0  0  0  0  0
   -1.9897   -1.2127   -2.5303 H   0  0  0  0  0  0  0  0  0  0  0  0
   -1.8380    0.3640   -1.7416 H   0  0  0  0  0  0  0  0  0  0  0  0
   -0.6376    1.0414   -3.8027 H   0  0  0  0  0  0  0  0  0  0  0  0
   -2.1485   -0.9848   -5.2993 H   0  0  0  0  0  0  0  0  0  0  0  0
   -0.5162   -1.3598   -4.6550 H   0  0  0  0  0  0  0  0  0  0  0  0
   -0.1860   -0.4649   -6.9212 H   0  0  0  0  0  0  0  0  0  0  0  0
   -1.1847    0.9649   -6.5651 H   0  0  0  0  0  0  0  0  0  0  0  0
    0.3922    0.7199   -5.7632 H   0  0  0  0  0  0  0  0  0  0  0  0
   -2.9184    1.2866   -5.0769 H   0  0  0  0  0  0  0  0  0  0  0  0
   -3.5308    0.6758   -3.5276 H   0  0  0  0  0  0  0  0  0  0  0  0
   -3.3543    3.2437   -3.6831 H   0  0  0  0  0  0  0  0  0  0  0  0
   -1.5961    3.0681   -3.8292 H   0  0  0  0  0  0  0  0  0  0  0  0
   -2.4219    2.5842   -2.3331 H   0  0  0  0  0  0  0  0  0  0  0  0
    2.7636    2.9134   -0.8479 H   0  0  0  0  0  0  0  0  0  0  0  0
    1.3279    3.7835   -1.4193 H   0  0  0  0  0  0  0  0  0  0  0  0
    1.8721    3.9823    0.2543 H   0  0  0  0  0  0  0  0  0  0  0  0
  1  2  2  0
  2  3  1  1
  3  4  1  0
  4  5  1  0
  5  6  1  0
  6  7  1  0
  2  8  1  0
  8  9  1  0
  9 10  1  0
 10 11  1  0
 11 12  1  0
 12 13  1  0
 11 14  1  0
 14 15  1  0
  2 16  1  0
  4 17  1  0
  4 18  1  0
  5 19  1  0
  5 20  1  0
  6 21  1  0
  6 22  1  0
  7 23  1  0
  7 24  1  0
  7 25  1  0
  9 26  1  0
  9 27  1  0
 10 28  1  0
 10 29  1  0
 11 30  1  6
 12 31  1  0
 12 32  1  0
 13 33  1  0
 13 34  1  0
 13 35  1  0
 14 36  1  0
 14 37  1  0
 15 38  1  0
 15 39  1  0
 15 40  1  0
 16 41  1  0
 16 42  1  0
 16 43  1  0
M  CHG  1  11   1
M  END
$$$$
