RVX
     RDKit          3D

 43 42  0  0  0  0  0  0  0  0999 V2000
    0.8742    3.2685   -0.3981 C   0  0  0  0  0  0  0  0  0  0  0  0
   -0.3299    3.8383    0.3263 C   0  0  0  0  0  0  0  0  0  0  0  0
   -0.7076    3.0137    1.5391 N   0  0  2  0  0  0  0  0  0  0  0  0
   -2.0457    3.4313    2.1282 C   0  0  0  0  0  0  0  0  0  0  0  0
   -3.1992    2.9872    1.2440 C   0  0  0  0  0  0  0  0  0  0  0  0
    0.3809    2.9559    2.6196 C   0  0  0  0  0  0  0  0  0  0  0  0
    1.1938    1.6552    2.5334 C   0  0  0  0  0  0  0  0  0  0  0  0
    0.1070    0.2174    2.3039 S   0  0  0  0  0  0  0  0  0  0  0  0
    1.5505   -1.5296    1.6453 P   0  0  2  0  0  0  0  0  0  0  0  0
    0.4910   -2.0575    0.7236 O   0  0  0  0  0  0  0  0  0  0  0  0
    1.6296   -2.1014    3.3354 C   0  0  0  0  0  0  0  0  0  0  0  0
    2.6553   -0.4419    1.1817 O   0  0  0  0  0  0  0  0  0  0  0  0
    3.7731   -0.8996    0.4253 C   0  0  0  0  0  0  0  0  0  0  0  0
    5.0529   -0.2866    0.9981 C   0  0  2  0  0  0  0  0  0  0  0  0
    5.0386    1.2393    0.8946 C   0  0  0  0  0  0  0  0  0  0  0  0
    6.2814   -0.8552    0.2927 C   0  0  0  0  0  0  0  0  0  0  0  0
    0.7302    2.2141   -0.6524 H   0  0  0  0  0  0  0  0  0  0  0  0
    1.7883    3.3741    0.1924 H   0  0  0  0  0  0  0  0  0  0  0  0
    1.0335    3.8164   -1.3334 H   0  0  0  0  0  0  0  0  0  0  0  0
   -1.1846    3.8328   -0.3550 H   0  0  0  0  0  0  0  0  0  0  0  0
   -0.1502    4.8650    0.6605 H   0  0  0  0  0  0  0  0  0  0  0  0
   -0.8387    2.0335    1.2320 H   0  0  0  0  0  0  0  0  0  0  0  0
   -2.1479    2.9358    3.1004 H   0  0  0  0  0  0  0  0  0  0  0  0
   -2.0252    4.5158    2.2761 H   0  0  0  0  0  0  0  0  0  0  0  0
   -3.1656    1.9081    1.0611 H   0  0  0  0  0  0  0  0  0  0  0  0
   -3.2117    3.5035    0.2824 H   0  0  0  0  0  0  0  0  0  0  0  0
   -4.1460    3.2101    1.7425 H   0  0  0  0  0  0  0  0  0  0  0  0
    1.0147    3.8439    2.5188 H   0  0  0  0  0  0  0  0  0  0  0  0
   -0.1079    3.0096    3.5991 H   0  0  0  0  0  0  0  0  0  0  0  0
    1.7824    1.5192    3.4457 H   0  0  0  0  0  0  0  0  0  0  0  0
    1.8966    1.7035    1.6989 H   0  0  0  0  0  0  0  0  0  0  0  0
    1.9954   -1.3082    3.9956 H   0  0  0  0  0  0  0  0  0  0  0  0
    0.6373   -2.4045    3.6822 H   0  0  0  0  0  0  0  0  0  0  0  0
    2.3011   -2.9607    3.4318 H   0  0  0  0  0  0  0  0  0  0  0  0
    3.6246   -0.5978   -0.6166 H   0  0  0  0  0  0  0  0  0  0  0  0
    3.8338   -1.9929    0.4530 H   0  0  0  0  0  0  0  0  0  0  0  0
    5.1107   -0.5402    2.0646 H   0  0  0  0  0  0  0  0  0  0  0  0
    4.1708    1.6664    1.4071 H   0  0  0  0  0  0  0  0  0  0  0  0
    5.9359    1.6619    1.3601 H   0  0  0  0  0  0  0  0  0  0  0  0
    5.0145    1.5673   -0.1512 H   0  0  0  0  0  0  0  0  0  0  0  0
    6.3302   -1.9422    0.4123 H   0  0  0  0  0  0  0  0  0  0  0  0
    7.2006   -0.4328    0.7118 H   0  0  0  0  0  0  0  0  0  0  0  0
    6.2634   -0.6333   -0.7794 H   0  0  0  0  0  0  0  0  0  0  0  0
  1  2  1  0
  2  3  1  0
  3  4  1  0
  4  5  1  0
  3  6  1  0
  6  7  1  0
  7  8  1  0
  8  9  1  0
  9 10  2  0
  9 11  1  0
  9 12  1  6
 12 13  1  0
 13 14  1  0
 14 15  1  0
 14 16  1  0
  1 17  1  0
  1 18  1  0
  1 19  1  0
  2 20  1  0
  2 21  1  0
  3 22  1  6
  4 23  1  0
  4 24  1  0
  5 25  1  0
  5 26  1  0
  5 27  1  0
  6 28  1  0
  6 29  1  0
  7 30  1  0
  7 31  1  0
 11 32  1  0
 11 33  1  0
 11 34  1  0
 13 35  1  0
 13 36  1  0
 14 37  1  1
 15 38  1  0
 15 39  1  0
 15 40  1  0
 16 41  1  0
 16 42  1  0
 16 43  1  0
M  CHG  1   3   1
M  END
$$$$
