RVX
     RDKit          3D

 43 42  0  0  0  0  0  0  0  0999 V2000
   -5.5238    0.1459   -0.3899 C   0  0  0  0  0  0  0  0  0  0  0  0
   -4.1727   -0.0552    0.2698 C   0  0  0  0  0  0  0  0  0  0  0  0
   -3.3668    1.2323    0.2580 N   0  0  2  0  0  0  0  0  0  0  0  0
   -2.8983    1.6632   -1.1239 C   0  0  0  0  0  0  0  0  0  0  0  0
   -3.6907    2.8748   -1.5799 C   0  0  0  0  0  0  0  0  0  0  0  0
   -2.2445    1.2329    1.2961 C   0  0  0  0  0  0  0  0  0  0  0  0
   -1.2102    0.1335    1.0543 C   0  0  0  0  0  0  0  0  0  0  0  0
    0.1055    0.2180    2.2992 S   0  0  0  0  0  0  0  0  0  0  0  0
    1.5490   -1.5290    1.6405 P   0  0  2  0  0  0  0  0  0  0  0  0
    0.4844   -2.0625    0.7225 O   0  0  0  0  0  0  0  0  0  0  0  0
    1.6352   -2.0944    3.3290 C   0  0  0  0  0  0  0  0  0  0  0  0
    2.6578   -0.4445    1.1941 O   0  0  0  0  0  0  0  0  0  0  0  0
    2.7108   -0.0609   -0.1713 C   0  0  0  0  0  0  0  0  0  0  0  0
    3.7448    1.0557   -0.3446 C   0  0  2  0  0  0  0  0  0  0  0  0
    3.7131    1.5999   -1.7714 C   0  0  0  0  0  0  0  0  0  0  0  0
    5.1520    0.5673    0.0088 C   0  0  0  0  0  0  0  0  0  0  0  0
   -6.0722    0.9749    0.0690 H   0  0  0  0  0  0  0  0  0  0  0  0
   -6.1292   -0.7600   -0.2801 H   0  0  0  0  0  0  0  0  0  0  0  0
   -5.4249    0.3451   -1.4606 H   0  0  0  0  0  0  0  0  0  0  0  0
   -4.3148   -0.3355    1.3187 H   0  0  0  0  0  0  0  0  0  0  0  0
   -3.5878   -0.8287   -0.2378 H   0  0  0  0  0  0  0  0  0  0  0  0
   -4.0093    1.9622    0.5961 H   0  0  0  0  0  0  0  0  0  0  0  0
   -3.0144    0.8182   -1.8101 H   0  0  0  0  0  0  0  0  0  0  0  0
   -1.8358    1.9212   -1.0679 H   0  0  0  0  0  0  0  0  0  0  0  0
   -4.7634    2.6661   -1.6283 H   0  0  0  0  0  0  0  0  0  0  0  0
   -3.5384    3.7210   -0.9012 H   0  0  0  0  0  0  0  0  0  0  0  0
   -3.3618    3.1823   -2.5777 H   0  0  0  0  0  0  0  0  0  0  0  0
   -1.7970    2.2332    1.2591 H   0  0  0  0  0  0  0  0  0  0  0  0
   -2.7342    1.1156    2.2699 H   0  0  0  0  0  0  0  0  0  0  0  0
   -0.7543    0.2289    0.0640 H   0  0  0  0  0  0  0  0  0  0  0  0
   -1.6750   -0.8545    1.1228 H   0  0  0  0  0  0  0  0  0  0  0  0
    0.6465   -2.3945    3.6870 H   0  0  0  0  0  0  0  0  0  0  0  0
    2.3056   -2.9548    3.4087 H   0  0  0  0  0  0  0  0  0  0  0  0
    2.0128   -1.3039    3.9832 H   0  0  0  0  0  0  0  0  0  0  0  0
    2.9753   -0.9329   -0.7794 H   0  0  0  0  0  0  0  0  0  0  0  0
    1.7183    0.2893   -0.4762 H   0  0  0  0  0  0  0  0  0  0  0  0
    3.4973    1.8717    0.3476 H   0  0  0  0  0  0  0  0  0  0  0  0
    4.4351    2.4149   -1.8916 H   0  0  0  0  0  0  0  0  0  0  0  0
    3.9569    0.8204   -2.5017 H   0  0  0  0  0  0  0  0  0  0  0  0
    2.7211    1.9952   -2.0148 H   0  0  0  0  0  0  0  0  0  0  0  0
    5.8818    1.3770   -0.1010 H   0  0  0  0  0  0  0  0  0  0  0  0
    5.4607   -0.2575   -0.6436 H   0  0  0  0  0  0  0  0  0  0  0  0
    5.2013    0.2157    1.0447 H   0  0  0  0  0  0  0  0  0  0  0  0
  1  2  1  0
  2  3  1  0
  3  4  1  0
  4  5  1  0
  3  6  1  0
  6  7  1  0
  7  8  1  0
  8  9  1  0
  9 10  2  0
  9 11  1  0
  9 12  1  6
 12 13  1  0
 13 14  1  0
 14 15  1  0
 14 16  1  0
  1 17  1  0
  1 18  1  0
  1 19  1  0
  2 20  1  0
  2 21  1  0
  3 22  1  1
  4 23  1  0
  4 24  1  0
  5 25  1  0
  5 26  1  0
  5 27  1  0
  6 28  1  0
  6 29  1  0
  7 30  1  0
  7 31  1  0
 11 32  1  0
 11 33  1  0
 11 34  1  0
 13 35  1  0
 13 36  1  0
 14 37  1  1
 15 38  1  0
 15 39  1  0
 15 40  1  0
 16 41  1  0
 16 42  1  0
 16 43  1  0
M  CHG  1   3   1
M  END
$$$$
