RVX
     RDKit          3D

 43 42  0  0  0  0  0  0  0  0999 V2000
   -4.1524   -0.3159    2.1226 C   0  0  0  0  0  0  0  0  0  0  0  0
   -3.1281   -0.2788    1.0011 C   0  0  0  0  0  0  0  0  0  0  0  0
   -2.9484    1.1419    0.4684 N   0  0  2  0  0  0  0  0  0  0  0  0
   -4.1589    1.6645   -0.2773 C   0  0  0  0  0  0  0  0  0  0  0  0
   -4.0223    3.1470   -0.5746 C   0  0  0  0  0  0  0  0  0  0  0  0
   -1.6181    1.2792   -0.2768 C   0  0  0  0  0  0  0  0  0  0  0  0
   -1.6346    0.6298   -1.6676 C   0  0  0  0  0  0  0  0  0  0  0  0
    0.0480    0.3196   -2.2836 S   0  0  0  0  0  0  0  0  0  0  0  0
    0.8471   -1.3285   -0.7953 P   0  0  1  0  0  0  0  0  0  0  0  0
   -0.5492   -1.5249   -0.2632 O   0  0  0  0  0  0  0  0  0  0  0  0
    1.4189   -2.2984   -2.1763 C   0  0  0  0  0  0  0  0  0  0  0  0
    1.8223   -0.2388   -0.1122 O   0  0  0  0  0  0  0  0  0  0  0  0
    2.7562    0.4878   -0.8977 C   0  0  0  0  0  0  0  0  0  0  0  0
    4.0127    0.7686   -0.0681 C   0  0  1  0  0  0  0  0  0  0  0  0
    4.7127   -0.5312    0.3344 C   0  0  0  0  0  0  0  0  0  0  0  0
    4.9717    1.6713   -0.8410 C   0  0  0  0  0  0  0  0  0  0  0  0
   -3.9231    0.4219    2.8980 H   0  0  0  0  0  0  0  0  0  0  0  0
   -5.1667   -0.1329    1.7575 H   0  0  0  0  0  0  0  0  0  0  0  0
   -4.1527   -1.3062    2.5900 H   0  0  0  0  0  0  0  0  0  0  0  0
   -3.4151   -0.9236    0.1656 H   0  0  0  0  0  0  0  0  0  0  0  0
   -2.1627   -0.5946    1.4055 H   0  0  0  0  0  0  0  0  0  0  0  0
   -2.8419    1.7292    1.3064 H   0  0  0  0  0  0  0  0  0  0  0  0
   -5.0298    1.5168    0.3660 H   0  0  0  0  0  0  0  0  0  0  0  0
   -4.2866    1.0710   -1.1874 H   0  0  0  0  0  0  0  0  0  0  0  0
   -4.9588    3.5294   -0.9936 H   0  0  0  0  0  0  0  0  0  0  0  0
   -3.2349    3.3456   -1.3073 H   0  0  0  0  0  0  0  0  0  0  0  0
   -3.8026    3.7165    0.3342 H   0  0  0  0  0  0  0  0  0  0  0  0
   -0.8563    0.8629    0.3897 H   0  0  0  0  0  0  0  0  0  0  0  0
   -1.4108    2.3524   -0.3526 H   0  0  0  0  0  0  0  0  0  0  0  0
   -2.1371    1.2880   -2.3833 H   0  0  0  0  0  0  0  0  0  0  0  0
   -2.1714   -0.3224   -1.6702 H   0  0  0  0  0  0  0  0  0  0  0  0
    1.9518   -3.1858   -1.8234 H   0  0  0  0  0  0  0  0  0  0  0  0
    2.0892   -1.7310   -2.8265 H   0  0  0  0  0  0  0  0  0  0  0  0
    0.5694   -2.6302   -2.7806 H   0  0  0  0  0  0  0  0  0  0  0  0
    3.0104   -0.0590   -1.8107 H   0  0  0  0  0  0  0  0  0  0  0  0
    2.2799    1.4290   -1.1923 H   0  0  0  0  0  0  0  0  0  0  0  0
    3.7147    1.2808    0.8557 H   0  0  0  0  0  0  0  0  0  0  0  0
    5.0139   -1.1085   -0.5463 H   0  0  0  0  0  0  0  0  0  0  0  0
    4.0569   -1.1611    0.9442 H   0  0  0  0  0  0  0  0  0  0  0  0
    5.6111   -0.3210    0.9246 H   0  0  0  0  0  0  0  0  0  0  0  0
    5.8592    1.9000   -0.2415 H   0  0  0  0  0  0  0  0  0  0  0  0
    5.3037    1.1961   -1.7703 H   0  0  0  0  0  0  0  0  0  0  0  0
    4.4896    2.6202   -1.0988 H   0  0  0  0  0  0  0  0  0  0  0  0
  1  2  1  0
  2  3  1  0
  3  4  1  0
  4  5  1  0
  3  6  1  0
  6  7  1  0
  7  8  1  0
  8  9  1  0
  9 10  2  0
  9 11  1  0
  9 12  1  1
 12 13  1  0
 13 14  1  0
 14 15  1  0
 14 16  1  0
  1 17  1  0
  1 18  1  0
  1 19  1  0
  2 20  1  0
  2 21  1  0
  3 22  1  1
  4 23  1  0
  4 24  1  0
  5 25  1  0
  5 26  1  0
  5 27  1  0
  6 28  1  0
  6 29  1  0
  7 30  1  0
  7 31  1  0
 11 32  1  0
 11 33  1  0
 11 34  1  0
 13 35  1  0
 13 36  1  0
 14 37  1  1
 15 38  1  0
 15 39  1  0
 15 40  1  0
 16 41  1  0
 16 42  1  0
 16 43  1  0
M  CHG  1   3   1
M  END
$$$$
