RVX
     RDKit          3D

 43 42  0  0  0  0  0  0  0  0999 V2000
   -5.2143    2.2399    0.5872 C   0  0  0  0  0  0  0  0  0  0  0  0
   -4.0485    1.8753   -0.3134 C   0  0  0  0  0  0  0  0  0  0  0  0
   -2.9189    1.2608    0.4813 N   0  0  1  0  0  0  0  0  0  0  0  0
   -3.2183   -0.0288    1.2315 C   0  0  0  0  0  0  0  0  0  0  0  0
   -3.8505   -1.1195    0.3910 C   0  0  0  0  0  0  0  0  0  0  0  0
   -1.5757    1.2657   -0.2447 C   0  0  0  0  0  0  0  0  0  0  0  0
   -1.6228    0.6749   -1.6571 C   0  0  0  0  0  0  0  0  0  0  0  0
    0.0447    0.3200   -2.2814 S   0  0  0  0  0  0  0  0  0  0  0  0
    0.8438   -1.3281   -0.7931 P   0  0  1  0  0  0  0  0  0  0  0  0
   -0.5520   -1.5277   -0.2647 O   0  0  0  0  0  0  0  0  0  0  0  0
    1.4201   -2.2948   -2.1730 C   0  0  0  0  0  0  0  0  0  0  0  0
    1.8271   -0.2401   -0.1162 O   0  0  0  0  0  0  0  0  0  0  0  0
    2.5695   -0.6201    1.0346 C   0  0  0  0  0  0  0  0  0  0  0  0
    3.3131    0.6005    1.5865 C   0  0  1  0  0  0  0  0  0  0  0  0
    4.0165    0.2494    2.8957 C   0  0  0  0  0  0  0  0  0  0  0  0
    4.3196    1.1449    0.5706 C   0  0  0  0  0  0  0  0  0  0  0  0
   -5.9763    2.7747    0.0111 H   0  0  0  0  0  0  0  0  0  0  0  0
   -5.6903    1.3529    1.0154 H   0  0  0  0  0  0  0  0  0  0  0  0
   -4.8949    2.8905    1.4078 H   0  0  0  0  0  0  0  0  0  0  0  0
   -3.6497    2.7844   -0.7766 H   0  0  0  0  0  0  0  0  0  0  0  0
   -4.3422    1.1765   -1.1016 H   0  0  0  0  0  0  0  0  0  0  0  0
   -2.7533    1.9287    1.2462 H   0  0  0  0  0  0  0  0  0  0  0  0
   -3.8913    0.2463    2.0509 H   0  0  0  0  0  0  0  0  0  0  0  0
   -2.2828   -0.3701    1.6869 H   0  0  0  0  0  0  0  0  0  0  0  0
   -4.1003   -1.9710    1.0338 H   0  0  0  0  0  0  0  0  0  0  0  0
   -3.1761   -1.4965   -0.3779 H   0  0  0  0  0  0  0  0  0  0  0  0
   -4.7798   -0.7945   -0.0838 H   0  0  0  0  0  0  0  0  0  0  0  0
   -0.8657    0.7694    0.4220 H   0  0  0  0  0  0  0  0  0  0  0  0
   -1.2757    2.3199   -0.2985 H   0  0  0  0  0  0  0  0  0  0  0  0
   -2.1962   -0.2493   -1.7082 H   0  0  0  0  0  0  0  0  0  0  0  0
   -2.0933    1.3849   -2.3450 H   0  0  0  0  0  0  0  0  0  0  0  0
    1.8727   -3.2311   -1.8360 H   0  0  0  0  0  0  0  0  0  0  0  0
    0.5878   -2.5450   -2.8371 H   0  0  0  0  0  0  0  0  0  0  0  0
    2.1651   -1.7409   -2.7510 H   0  0  0  0  0  0  0  0  0  0  0  0
    3.2757   -1.4120    0.7644 H   0  0  0  0  0  0  0  0  0  0  0  0
    1.8784   -1.0126    1.7882 H   0  0  0  0  0  0  0  0  0  0  0  0
    2.5817    1.3952    1.7821 H   0  0  0  0  0  0  0  0  0  0  0  0
    3.2959   -0.1014    3.6420 H   0  0  0  0  0  0  0  0  0  0  0  0
    4.5268    1.1252    3.3104 H   0  0  0  0  0  0  0  0  0  0  0  0
    4.7624   -0.5390    2.7476 H   0  0  0  0  0  0  0  0  0  0  0  0
    5.0687    0.3892    0.3105 H   0  0  0  0  0  0  0  0  0  0  0  0
    3.8205    1.4589   -0.3519 H   0  0  0  0  0  0  0  0  0  0  0  0
    4.8452    2.0167    0.9748 H   0  0  0  0  0  0  0  0  0  0  0  0
  1  2  1  0
  2  3  1  0
  3  4  1  0
  4  5  1  0
  3  6  1  0
  6  7  1  0
  7  8  1  0
  8  9  1  0
  9 10  2  0
  9 11  1  0
  9 12  1  1
 12 13  1  0
 13 14  1  0
 14 15  1  0
 14 16  1  0
  1 17  1  0
  1 18  1  0
  1 19  1  0
  2 20  1  0
  2 21  1  0
  3 22  1  6
  4 23  1  0
  4 24  1  0
  5 25  1  0
  5 26  1  0
  5 27  1  0
  6 28  1  0
  6 29  1  0
  7 30  1  0
  7 31  1  0
 11 32  1  0
 11 33  1  0
 11 34  1  0
 13 35  1  0
 13 36  1  0
 14 37  1  1
 15 38  1  0
 15 39  1  0
 15 40  1  0
 16 41  1  0
 16 42  1  0
 16 43  1  0
M  CHG  1   3   1
M  END
$$$$
