RVX
     RDKit          3D

 43 42  0  0  0  0  0  0  0  0999 V2000
   -5.3056    2.1315    0.4887 C   0  0  0  0  0  0  0  0  0  0  0  0
   -4.1160    1.7905   -0.3897 C   0  0  0  0  0  0  0  0  0  0  0  0
   -2.9885    1.2005    0.4263 N   0  0  1  0  0  0  0  0  0  0  0  0
   -3.2744   -0.0944    1.1725 C   0  0  0  0  0  0  0  0  0  0  0  0
   -3.8700   -1.1983    0.3222 C   0  0  0  0  0  0  0  0  0  0  0  0
   -1.6325    1.2330   -0.2751 C   0  0  0  0  0  0  0  0  0  0  0  0
   -1.6418    0.6404   -1.6875 C   0  0  0  0  0  0  0  0  0  0  0  0
    0.0439    0.3203   -2.2805 S   0  0  0  0  0  0  0  0  0  0  0  0
    0.8430   -1.3278   -0.7923 P   0  0  1  0  0  0  0  0  0  0  0  0
   -0.5531   -1.5283   -0.2648 O   0  0  0  0  0  0  0  0  0  0  0  0
    1.4208   -2.2939   -2.1724 C   0  0  0  0  0  0  0  0  0  0  0  0
    1.8283   -0.2407   -0.1175 O   0  0  0  0  0  0  0  0  0  0  0  0
    2.5261   -0.6027    1.0666 C   0  0  0  0  0  0  0  0  0  0  0  0
    3.4310    0.5560    1.4984 C   0  0  2  0  0  0  0  0  0  0  0  0
    4.4939    0.8550    0.4381 C   0  0  0  0  0  0  0  0  0  0  0  0
    4.0911    0.2461    2.8401 C   0  0  0  0  0  0  0  0  0  0  0  0
   -5.7698    1.2355    0.9106 H   0  0  0  0  0  0  0  0  0  0  0  0
   -5.0158    2.7911    1.3132 H   0  0  0  0  0  0  0  0  0  0  0  0
   -6.0686    2.6481   -0.1027 H   0  0  0  0  0  0  0  0  0  0  0  0
   -3.7279    2.7072   -0.8468 H   0  0  0  0  0  0  0  0  0  0  0  0
   -4.3805    1.0850   -1.1823 H   0  0  0  0  0  0  0  0  0  0  0  0
   -2.8509    1.8722    1.1934 H   0  0  0  0  0  0  0  0  0  0  0  0
   -3.9663    0.1674    1.9803 H   0  0  0  0  0  0  0  0  0  0  0  0
   -2.3401   -0.4165    1.6443 H   0  0  0  0  0  0  0  0  0  0  0  0
   -3.1759   -1.5609   -0.4362 H   0  0  0  0  0  0  0  0  0  0  0  0
   -4.7984   -0.8928   -0.1670 H   0  0  0  0  0  0  0  0  0  0  0  0
   -4.1118   -2.0548    0.9612 H   0  0  0  0  0  0  0  0  0  0  0  0
   -1.3539    2.2933   -0.3246 H   0  0  0  0  0  0  0  0  0  0  0  0
   -0.9242    0.7525    0.4053 H   0  0  0  0  0  0  0  0  0  0  0  0
   -2.1140    1.3402   -2.3844 H   0  0  0  0  0  0  0  0  0  0  0  0
   -2.1951   -0.2953   -1.7482 H   0  0  0  0  0  0  0  0  0  0  0  0
    2.1642   -1.7385   -2.7513 H   0  0  0  0  0  0  0  0  0  0  0  0
    1.8758   -3.2296   -1.8372 H   0  0  0  0  0  0  0  0  0  0  0  0
    0.5883   -2.5455   -2.8357 H   0  0  0  0  0  0  0  0  0  0  0  0
    1.7921   -0.8213    1.8501 H   0  0  0  0  0  0  0  0  0  0  0  0
    3.1175   -1.5059    0.8838 H   0  0  0  0  0  0  0  0  0  0  0  0
    2.8149    1.4578    1.6090 H   0  0  0  0  0  0  0  0  0  0  0  0
    5.1334   -0.0166    0.2604 H   0  0  0  0  0  0  0  0  0  0  0  0
    4.0338    1.1376   -0.5144 H   0  0  0  0  0  0  0  0  0  0  0  0
    5.1343    1.6857    0.7551 H   0  0  0  0  0  0  0  0  0  0  0  0
    4.7201   -0.6484    2.7767 H   0  0  0  0  0  0  0  0  0  0  0  0
    4.7209    1.0805    3.1664 H   0  0  0  0  0  0  0  0  0  0  0  0
    3.3356    0.0754    3.6144 H   0  0  0  0  0  0  0  0  0  0  0  0
  1  2  1  0
  2  3  1  0
  3  4  1  0
  4  5  1  0
  3  6  1  0
  6  7  1  0
  7  8  1  0
  8  9  1  0
  9 10  2  0
  9 11  1  0
  9 12  1  1
 12 13  1  0
 13 14  1  0
 14 15  1  0
 14 16  1  0
  1 17  1  0
  1 18  1  0
  1 19  1  0
  2 20  1  0
  2 21  1  0
  3 22  1  6
  4 23  1  0
  4 24  1  0
  5 25  1  0
  5 26  1  0
  5 27  1  0
  6 28  1  0
  6 29  1  0
  7 30  1  0
  7 31  1  0
 11 32  1  0
 11 33  1  0
 11 34  1  0
 13 35  1  0
 13 36  1  0
 14 37  1  6
 15 38  1  0
 15 39  1  0
 15 40  1  0
 16 41  1  0
 16 42  1  0
 16 43  1  0
M  CHG  1   3   1
M  END
$$$$
