VX
     RDKit          3D

 45 44  0  0  0  0  0  0  0  0999 V2000
    3.2369    0.2706    3.3396 C   0  0  0  0  0  0  0  0  0  0  0  0
    3.5297   -0.5666    2.1118 C   0  0  0  0  0  0  0  0  0  0  0  0
    2.9772    0.0848    0.9789 O   0  0  0  0  0  0  0  0  0  0  0  0
    2.6985   -0.7458   -0.3787 P   0  0  0  0  0  0  0  0  0  0  0  0
    3.5464   -2.2803   -0.6916 C   0  0  0  0  0  0  0  0  0  0  0  0
    1.7122   -0.2120   -1.3837 O   0  0  0  0  0  0  0  0  0  0  0  0
    0.9618   -1.9253    0.6994 S   0  0  0  0  0  0  0  0  0  0  0  0
   -0.5341   -1.1183    0.0500 C   0  0  0  0  0  0  0  0  0  0  0  0
   -0.6022    0.3532    0.4728 C   0  0  0  0  0  0  0  0  0  0  0  0
   -1.7748    1.1193   -0.1678 N   0  0  0  0  0  0  0  0  0  0  0  0
   -1.4878    1.3735   -1.6705 C   0  0  0  0  0  0  0  0  0  0  0  0
   -1.6920    2.8530   -1.9916 C   0  0  0  0  0  0  0  0  0  0  0  0
   -2.2702    0.4564   -2.6046 C   0  0  0  0  0  0  0  0  0  0  0  0
   -3.1815    0.6438    0.2362 C   0  0  0  0  0  0  0  0  0  0  0  0
   -4.2194    1.7189   -0.0940 C   0  0  0  0  0  0  0  0  0  0  0  0
   -3.2547    0.3740    1.7439 C   0  0  0  0  0  0  0  0  0  0  0  0
    3.6542   -0.1937    4.2375 H   0  0  0  0  0  0  0  0  0  0  0  0
    3.6596    1.2751    3.2320 H   0  0  0  0  0  0  0  0  0  0  0  0
    2.1568    0.3923    3.4739 H   0  0  0  0  0  0  0  0  0  0  0  0
    4.6105   -0.6630    1.9724 H   0  0  0  0  0  0  0  0  0  0  0  0
    3.0973   -1.5646    2.2277 H   0  0  0  0  0  0  0  0  0  0  0  0
    3.7152   -2.8413    0.2315 H   0  0  0  0  0  0  0  0  0  0  0  0
    2.9557   -2.9094   -1.3638 H   0  0  0  0  0  0  0  0  0  0  0  0
    4.5148   -2.0930   -1.1638 H   0  0  0  0  0  0  0  0  0  0  0  0
   -0.5111   -1.2256   -1.0358 H   0  0  0  0  0  0  0  0  0  0  0  0
   -1.4027   -1.6716    0.4171 H   0  0  0  0  0  0  0  0  0  0  0  0
   -0.7059    0.4554    1.5580 H   0  0  0  0  0  0  0  0  0  0  0  0
    0.2964    0.9185    0.2080 H   0  0  0  0  0  0  0  0  0  0  0  0
   -1.6883    2.0466    0.2691 H   0  0  0  0  0  0  0  0  0  0  0  0
   -0.4221    1.1702   -1.8183 H   0  0  0  0  0  0  0  0  0  0  0  0
   -2.7338    3.1666   -1.8996 H   0  0  0  0  0  0  0  0  0  0  0  0
   -1.0879    3.4846   -1.3313 H   0  0  0  0  0  0  0  0  0  0  0  0
   -1.3789    3.0621   -3.0204 H   0  0  0  0  0  0  0  0  0  0  0  0
   -2.1691   -0.5971   -2.3324 H   0  0  0  0  0  0  0  0  0  0  0  0
   -1.8911    0.5624   -3.6276 H   0  0  0  0  0  0  0  0  0  0  0  0
   -3.3351    0.6962   -2.6410 H   0  0  0  0  0  0  0  0  0  0  0  0
   -3.3880   -0.2822   -0.3090 H   0  0  0  0  0  0  0  0  0  0  0  0
   -4.3470    1.8637   -1.1675 H   0  0  0  0  0  0  0  0  0  0  0  0
   -3.9540    2.6830    0.3536 H   0  0  0  0  0  0  0  0  0  0  0  0
   -5.2044    1.4339    0.2932 H   0  0  0  0  0  0  0  0  0  0  0  0
   -2.6557   -0.4930    2.0359 H   0  0  0  0  0  0  0  0  0  0  0  0
   -4.2842    0.1490    2.0453 H   0  0  0  0  0  0  0  0  0  0  0  0
   -2.9197    1.2408    2.3241 H   0  0  0  0  0  0  0  0  0  0  0  0
    4.0967    0.2038   -1.2467 O   0  0  0  0  0  0  0  0  0  0  0  0
    4.7165    0.6247   -0.5995 H   0  0  0  0  0  0  0  0  0  0  0  0
  1  2  1  0
  2  3  1  0
  4  3  1  1
  4  5  1  0
  4  6  2  0
  7  8  1  0
  8  9  1  0
  9 10  1  0
 10 11  1  0
 11 12  1  0
 11 13  1  0
 10 14  1  0
 14 15  1  0
 14 16  1  0
  1 17  1  0
  1 18  1  0
  1 19  1  0
  2 20  1  0
  2 21  1  0
  5 22  1  0
  5 23  1  0
  5 24  1  0
  8 25  1  0
  8 26  1  0
  9 27  1  0
  9 28  1  0
 10 29  1  0
 11 30  1  0
 12 31  1  0
 12 32  1  0
 12 33  1  0
 13 34  1  0
 13 35  1  0
 13 36  1  0
 14 37  1  0
 15 38  1  0
 15 39  1  0
 15 40  1  0
 16 41  1  0
 16 42  1  0
 16 43  1  0
 44 45  1  0
  4 44  1  0
  4  7  1  0
M  CHG  1  10   1
M  END
$$$$
