VX
     RDKit          3D

 45 44  0  0  0  0  0  0  0  0999 V2000
    3.7258    1.9126    2.3005 C   0  0  0  0  0  0  0  0  0  0  0  0
    3.7463    1.2709    0.9273 C   0  0  0  0  0  0  0  0  0  0  0  0
    2.9909    0.0713    0.9863 O   0  0  0  0  0  0  0  0  0  0  0  0
    2.6906   -0.7379   -0.3828 P   0  0  0  0  0  0  0  0  0  0  0  0
    3.5473   -2.2718   -0.6808 C   0  0  0  0  0  0  0  0  0  0  0  0
    1.7054   -0.2150   -1.3978 O   0  0  0  0  0  0  0  0  0  0  0  0
    0.9539   -1.9173    0.6953 S   0  0  0  0  0  0  0  0  0  0  0  0
   -0.3739   -0.6741    0.6735 C   0  0  0  0  0  0  0  0  0  0  0  0
   -1.2250   -0.8372   -0.5907 C   0  0  0  0  0  0  0  0  0  0  0  0
   -2.2992    0.2503   -0.7927 N   0  0  0  0  0  0  0  0  0  0  0  0
   -1.8329    1.4759   -1.6065 C   0  0  0  0  0  0  0  0  0  0  0  0
   -0.8736    2.3639   -0.8306 C   0  0  0  0  0  0  0  0  0  0  0  0
   -1.2662    1.0607   -2.9592 C   0  0  0  0  0  0  0  0  0  0  0  0
   -3.1422    0.5567    0.4633 C   0  0  0  0  0  0  0  0  0  0  0  0
   -3.8559   -0.7180    0.9373 C   0  0  0  0  0  0  0  0  0  0  0  0
   -4.2047    1.6257    0.1810 C   0  0  0  0  0  0  0  0  0  0  0  0
    2.6915    2.0301    2.6539 H   0  0  0  0  0  0  0  0  0  0  0  0
    4.2422    1.2748    3.0308 H   0  0  0  0  0  0  0  0  0  0  0  0
    4.2124    2.8953    2.2882 H   0  0  0  0  0  0  0  0  0  0  0  0
    3.2977    1.9516    0.2044 H   0  0  0  0  0  0  0  0  0  0  0  0
    4.7690    1.0384    0.6171 H   0  0  0  0  0  0  0  0  0  0  0  0
    3.7200   -2.8085    0.2588 H   0  0  0  0  0  0  0  0  0  0  0  0
    2.9620   -2.9168   -1.3456 H   0  0  0  0  0  0  0  0  0  0  0  0
    4.5205   -2.0942   -1.1499 H   0  0  0  0  0  0  0  0  0  0  0  0
    0.0735    0.3174    0.7506 H   0  0  0  0  0  0  0  0  0  0  0  0
   -0.9687   -0.8374    1.5797 H   0  0  0  0  0  0  0  0  0  0  0  0
   -1.7739   -1.7839   -0.5521 H   0  0  0  0  0  0  0  0  0  0  0  0
   -0.6163   -0.8783   -1.5003 H   0  0  0  0  0  0  0  0  0  0  0  0
   -2.9711   -0.1981   -1.4345 H   0  0  0  0  0  0  0  0  0  0  0  0
   -2.7433    2.0388   -1.8336 H   0  0  0  0  0  0  0  0  0  0  0  0
   -1.2335    2.5903    0.1738 H   0  0  0  0  0  0  0  0  0  0  0  0
   -0.7528    3.3266   -1.3548 H   0  0  0  0  0  0  0  0  0  0  0  0
    0.1206    1.9206   -0.7487 H   0  0  0  0  0  0  0  0  0  0  0  0
   -0.2253    0.7386   -2.8837 H   0  0  0  0  0  0  0  0  0  0  0  0
   -1.2907    1.9107   -3.6564 H   0  0  0  0  0  0  0  0  0  0  0  0
   -1.8471    0.2521   -3.4104 H   0  0  0  0  0  0  0  0  0  0  0  0
   -2.4508    0.9193    1.2348 H   0  0  0  0  0  0  0  0  0  0  0  0
   -4.4516   -0.5107    1.8327 H   0  0  0  0  0  0  0  0  0  0  0  0
   -4.5363   -1.1051    0.1701 H   0  0  0  0  0  0  0  0  0  0  0  0
   -3.1587   -1.5158    1.2087 H   0  0  0  0  0  0  0  0  0  0  0  0
   -3.7560    2.6028   -0.0401 H   0  0  0  0  0  0  0  0  0  0  0  0
   -4.8591    1.3416   -0.6598 H   0  0  0  0  0  0  0  0  0  0  0  0
   -4.8425    1.7691    1.0645 H   0  0  0  0  0  0  0  0  0  0  0  0
    4.0888    0.2116   -1.2508 O   0  0  0  0  0  0  0  0  0  0  0  0
    4.7086    0.6326   -0.6037 H   0  0  0  0  0  0  0  0  0  0  0  0
  1  2  1  0
  2  3  1  0
  4  3  1  1
  4  5  1  0
  4  6  2  0
  7  8  1  0
  8  9  1  0
  9 10  1  0
 10 11  1  0
 11 12  1  0
 11 13  1  0
 10 14  1  0
 14 15  1  0
 14 16  1  0
  1 17  1  0
  1 18  1  0
  1 19  1  0
  2 20  1  0
  2 21  1  0
  5 22  1  0
  5 23  1  0
  5 24  1  0
  8 25  1  0
  8 26  1  0
  9 27  1  0
  9 28  1  0
 10 29  1  0
 11 30  1  0
 12 31  1  0
 12 32  1  0
 12 33  1  0
 13 34  1  0
 13 35  1  0
 13 36  1  0
 14 37  1  0
 15 38  1  0
 15 39  1  0
 15 40  1  0
 16 41  1  0
 16 42  1  0
 16 43  1  0
 44 45  1  0
  4 44  1  0
  4  7  1  0
M  CHG  1  10   1
M  END
$$$$
