VX
     RDKit          3D

 45 44  0  0  0  0  0  0  0  0999 V2000
    3.3678   -2.4897    0.7302 C   0  0  0  0  0  0  0  0  0  0  0  0
    3.7657   -1.0577    1.0221 C   0  0  0  0  0  0  0  0  0  0  0  0
    2.9984   -0.1979    0.1970 O   0  0  0  0  0  0  0  0  0  0  0  0
    2.8368    1.3649    0.5736 P   0  0  0  0  0  0  0  0  0  0  0  0
    4.0410    2.1312    1.6427 C   0  0  0  0  0  0  0  0  0  0  0  0
    1.6887    2.1719    0.0345 O   0  0  0  0  0  0  0  0  0  0  0  0
    1.5399    0.7772    2.4557 S   0  0  0  0  0  0  0  0  0  0  0  0
   -0.1282    0.7430    1.7378 C   0  0  0  0  0  0  0  0  0  0  0  0
   -1.1657    0.3368    2.7808 C   0  0  0  0  0  0  0  0  0  0  0  0
   -2.5617    0.1365    2.1650 N   0  0  0  0  0  0  0  0  0  0  0  0
   -3.2989    1.3909    1.6557 C   0  0  0  0  0  0  0  0  0  0  0  0
   -2.9680    2.6529    2.4450 C   0  0  0  0  0  0  0  0  0  0  0  0
   -3.0455    1.5590    0.1585 C   0  0  0  0  0  0  0  0  0  0  0  0
   -3.4171   -0.8063    3.0338 C   0  0  0  0  0  0  0  0  0  0  0  0
   -3.9600   -0.1057    4.2725 C   0  0  0  0  0  0  0  0  0  0  0  0
   -4.5192   -1.4446    2.1887 C   0  0  0  0  0  0  0  0  0  0  0  0
    3.5289   -2.7277   -0.3265 H   0  0  0  0  0  0  0  0  0  0  0  0
    2.3023   -2.6419    0.9319 H   0  0  0  0  0  0  0  0  0  0  0  0
    3.9460   -3.1881    1.3414 H   0  0  0  0  0  0  0  0  0  0  0  0
    3.5926   -0.8293    2.0777 H   0  0  0  0  0  0  0  0  0  0  0  0
    4.8265   -0.9109    0.7979 H   0  0  0  0  0  0  0  0  0  0  0  0
    3.5978    2.9877    2.1590 H   0  0  0  0  0  0  0  0  0  0  0  0
    4.8956    2.4884    1.0613 H   0  0  0  0  0  0  0  0  0  0  0  0
    4.4062    1.4335    2.4012 H   0  0  0  0  0  0  0  0  0  0  0  0
   -0.1292    0.0396    0.8990 H   0  0  0  0  0  0  0  0  0  0  0  0
   -0.3357    1.7412    1.3509 H   0  0  0  0  0  0  0  0  0  0  0  0
   -0.8793   -0.6310    3.2086 H   0  0  0  0  0  0  0  0  0  0  0  0
   -1.2546    1.0587    3.5978 H   0  0  0  0  0  0  0  0  0  0  0  0
   -2.3813   -0.4296    1.3249 H   0  0  0  0  0  0  0  0  0  0  0  0
   -4.3685    1.1975    1.7734 H   0  0  0  0  0  0  0  0  0  0  0  0
   -3.1304    2.5171    3.5179 H   0  0  0  0  0  0  0  0  0  0  0  0
   -3.6187    3.4739    2.1225 H   0  0  0  0  0  0  0  0  0  0  0  0
   -1.9390    2.9880    2.2910 H   0  0  0  0  0  0  0  0  0  0  0  0
   -3.6473    2.3848   -0.2365 H   0  0  0  0  0  0  0  0  0  0  0  0
   -2.0005    1.7792   -0.0698 H   0  0  0  0  0  0  0  0  0  0  0  0
   -3.3297    0.6550   -0.3911 H   0  0  0  0  0  0  0  0  0  0  0  0
   -2.7465   -1.6156    3.3462 H   0  0  0  0  0  0  0  0  0  0  0  0
   -4.4711   -0.8287    4.9180 H   0  0  0  0  0  0  0  0  0  0  0  0
   -4.6877    0.6723    4.0230 H   0  0  0  0  0  0  0  0  0  0  0  0
   -3.1581    0.3469    4.8633 H   0  0  0  0  0  0  0  0  0  0  0  0
   -5.2894   -0.7286    1.8887 H   0  0  0  0  0  0  0  0  0  0  0  0
   -4.1071   -1.9037    1.2838 H   0  0  0  0  0  0  0  0  0  0  0  0
   -5.0192   -2.2344    2.7602 H   0  0  0  0  0  0  0  0  0  0  0  0
    3.8809    1.8380   -0.9416 O   0  0  0  0  0  0  0  0  0  0  0  0
    4.7515    2.2325   -0.6836 H   0  0  0  0  0  0  0  0  0  0  0  0
  1  2  1  0
  2  3  1  0
  4  3  1  1
  4  5  1  0
  4  6  2  0
  7  8  1  0
  8  9  1  0
  9 10  1  0
 10 11  1  0
 11 12  1  0
 11 13  1  0
 10 14  1  0
 14 15  1  0
 14 16  1  0
  1 17  1  0
  1 18  1  0
  1 19  1  0
  2 20  1  0
  2 21  1  0
  5 22  1  0
  5 23  1  0
  5 24  1  0
  8 25  1  0
  8 26  1  0
  9 27  1  0
  9 28  1  0
 10 29  1  0
 11 30  1  0
 12 31  1  0
 12 32  1  0
 12 33  1  0
 13 34  1  0
 13 35  1  0
 13 36  1  0
 14 37  1  0
 15 38  1  0
 15 39  1  0
 15 40  1  0
 16 41  1  0
 16 42  1  0
 16 43  1  0
 44 45  1  0
  4 44  1  0
  4  7  1  0
M  CHG  1  10   1
M  END
$$$$
