VX
     RDKit          3D

 45 44  0  0  0  0  0  0  0  0999 V2000
    3.8442   -2.3033   -0.5011 C   0  0  0  0  0  0  0  0  0  0  0  0
    2.5580   -1.8387    0.1496 C   0  0  0  0  0  0  0  0  0  0  0  0
    2.5328   -0.4201    0.1631 O   0  0  0  0  0  0  0  0  0  0  0  0
    2.4690    0.3913    1.5587 P   0  0  0  0  0  0  0  0  0  0  0  0
    3.1326   -0.3223    3.0496 C   0  0  0  0  0  0  0  0  0  0  0  0
    1.8437    1.7588    1.5931 O   0  0  0  0  0  0  0  0  0  0  0  0
    0.3701   -0.5803    2.0277 S   0  0  0  0  0  0  0  0  0  0  0  0
   -0.8129    0.7109    1.5328 C   0  0  0  0  0  0  0  0  0  0  0  0
   -0.6676    1.0849    0.0526 C   0  0  0  0  0  0  0  0  0  0  0  0
   -1.8182    1.9795   -0.4426 N   0  0  0  0  0  0  0  0  0  0  0  0
   -1.9824    1.8626   -1.9710 C   0  0  0  0  0  0  0  0  0  0  0  0
   -0.9156    2.6457   -2.7254 C   0  0  0  0  0  0  0  0  0  0  0  0
   -3.4010    2.2607   -2.3780 C   0  0  0  0  0  0  0  0  0  0  0  0
   -1.8720    3.4214    0.0996 C   0  0  0  0  0  0  0  0  0  0  0  0
   -2.8092    3.4747    1.3050 C   0  0  0  0  0  0  0  0  0  0  0  0
   -0.5019    4.0122    0.4098 C   0  0  0  0  0  0  0  0  0  0  0  0
    3.9322   -1.8985   -1.5147 H   0  0  0  0  0  0  0  0  0  0  0  0
    4.7134   -1.9461    0.0606 H   0  0  0  0  0  0  0  0  0  0  0  0
    3.8828   -3.3950   -0.5528 H   0  0  0  0  0  0  0  0  0  0  0  0
    1.6971   -2.1841   -0.4310 H   0  0  0  0  0  0  0  0  0  0  0  0
    2.4681   -2.2505    1.1588 H   0  0  0  0  0  0  0  0  0  0  0  0
    4.2017   -0.1077    3.1316 H   0  0  0  0  0  0  0  0  0  0  0  0
    2.6331    0.1016    3.9256 H   0  0  0  0  0  0  0  0  0  0  0  0
    2.9965   -1.4064    3.0790 H   0  0  0  0  0  0  0  0  0  0  0  0
   -1.8195    0.3284    1.7302 H   0  0  0  0  0  0  0  0  0  0  0  0
   -0.6505    1.5725    2.1828 H   0  0  0  0  0  0  0  0  0  0  0  0
   -0.7219    0.1673   -0.5446 H   0  0  0  0  0  0  0  0  0  0  0  0
    0.2692    1.5879   -0.1908 H   0  0  0  0  0  0  0  0  0  0  0  0
   -2.6650    1.5195   -0.0843 H   0  0  0  0  0  0  0  0  0  0  0  0
   -1.8728    0.7964   -2.2026 H   0  0  0  0  0  0  0  0  0  0  0  0
    0.0929    2.3474   -2.4236 H   0  0  0  0  0  0  0  0  0  0  0  0
   -1.0019    2.4552   -3.8009 H   0  0  0  0  0  0  0  0  0  0  0  0
   -1.0150    3.7257   -2.5820 H   0  0  0  0  0  0  0  0  0  0  0  0
   -4.1479    1.7139   -1.7928 H   0  0  0  0  0  0  0  0  0  0  0  0
   -3.5691    2.0202   -3.4336 H   0  0  0  0  0  0  0  0  0  0  0  0
   -3.5898    3.3312   -2.2584 H   0  0  0  0  0  0  0  0  0  0  0  0
   -2.3292    4.0346   -0.6816 H   0  0  0  0  0  0  0  0  0  0  0  0
   -2.9397    4.5102    1.6377 H   0  0  0  0  0  0  0  0  0  0  0  0
   -2.4309    2.9038    2.1559 H   0  0  0  0  0  0  0  0  0  0  0  0
   -3.8007    3.0858    1.0485 H   0  0  0  0  0  0  0  0  0  0  0  0
    0.1852    3.9255   -0.4362 H   0  0  0  0  0  0  0  0  0  0  0  0
   -0.0383    3.5506    1.2845 H   0  0  0  0  0  0  0  0  0  0  0  0
   -0.6014    5.0803    0.6351 H   0  0  0  0  0  0  0  0  0  0  0  0
    4.1588    1.1735    1.1811 O   0  0  0  0  0  0  0  0  0  0  0  0
    4.6542    1.4029    2.0070 H   0  0  0  0  0  0  0  0  0  0  0  0
  1  2  1  0
  2  3  1  0
  4  3  1  6
  4  5  1  0
  4  6  2  0
  7  8  1  0
  8  9  1  0
  9 10  1  0
 10 11  1  0
 11 12  1  0
 11 13  1  0
 10 14  1  0
 14 15  1  0
 14 16  1  0
  1 17  1  0
  1 18  1  0
  1 19  1  0
  2 20  1  0
  2 21  1  0
  5 22  1  0
  5 23  1  0
  5 24  1  0
  8 25  1  0
  8 26  1  0
  9 27  1  0
  9 28  1  0
 10 29  1  0
 11 30  1  0
 12 31  1  0
 12 32  1  0
 12 33  1  0
 13 34  1  0
 13 35  1  0
 13 36  1  0
 14 37  1  0
 15 38  1  0
 15 39  1  0
 15 40  1  0
 16 41  1  0
 16 42  1  0
 16 43  1  0
 44 45  1  0
  4 44  1  0
  4  7  1  0
M  CHG  1  10   1
M  END
$$$$
