VX
     RDKit          3D

 45 44  0  0  0  0  0  0  0  0999 V2000
    2.7189    1.7062    2.6693 C   0  0  0  0  0  0  0  0  0  0  0  0
    2.2427    1.1842    1.3290 C   0  0  0  0  0  0  0  0  0  0  0  0
    3.0121    0.0434    0.9898 O   0  0  0  0  0  0  0  0  0  0  0  0
    2.6761   -0.7218   -0.3886 P   0  0  0  0  0  0  0  0  0  0  0  0
    3.5482   -2.2545   -0.6604 C   0  0  0  0  0  0  0  0  0  0  0  0
    1.6978   -0.2204   -1.4160 O   0  0  0  0  0  0  0  0  0  0  0  0
    0.9393   -1.9012    0.6895 S   0  0  0  0  0  0  0  0  0  0  0  0
   -0.1626   -2.3407   -0.6919 C   0  0  0  0  0  0  0  0  0  0  0  0
   -0.9804   -1.1474   -1.2193 C   0  0  0  0  0  0  0  0  0  0  0  0
   -2.4164   -1.1040   -0.6599 N   0  0  0  0  0  0  0  0  0  0  0  0
   -3.3887   -0.2714   -1.5237 C   0  0  0  0  0  0  0  0  0  0  0  0
   -2.7509    0.9947   -2.0914 C   0  0  0  0  0  0  0  0  0  0  0  0
   -3.9342   -1.1635   -2.6407 C   0  0  0  0  0  0  0  0  0  0  0  0
   -2.5029   -0.8544    0.8527 C   0  0  0  0  0  0  0  0  0  0  0  0
   -3.8510   -1.3388    1.3860 C   0  0  0  0  0  0  0  0  0  0  0  0
   -2.2267    0.5948    1.2240 C   0  0  0  0  0  0  0  0  0  0  0  0
    2.1543    2.5946    2.9663 H   0  0  0  0  0  0  0  0  0  0  0  0
    2.6059    0.9404    3.4443 H   0  0  0  0  0  0  0  0  0  0  0  0
    3.7834    1.9619    2.6257 H   0  0  0  0  0  0  0  0  0  0  0  0
    2.3703    1.9525    0.5591 H   0  0  0  0  0  0  0  0  0  0  0  0
    1.1839    0.9084    1.3840 H   0  0  0  0  0  0  0  0  0  0  0  0
    4.5034   -2.0650   -1.1572 H   0  0  0  0  0  0  0  0  0  0  0  0
    3.7513   -2.7618    0.2871 H   0  0  0  0  0  0  0  0  0  0  0  0
    2.9605   -2.9268   -1.2926 H   0  0  0  0  0  0  0  0  0  0  0  0
   -0.8131   -3.1649   -0.3793 H   0  0  0  0  0  0  0  0  0  0  0  0
    0.4769   -2.7215   -1.4951 H   0  0  0  0  0  0  0  0  0  0  0  0
   -0.5294   -0.1720   -1.0267 H   0  0  0  0  0  0  0  0  0  0  0  0
   -1.0913   -1.2819   -2.3005 H   0  0  0  0  0  0  0  0  0  0  0  0
   -2.7516   -2.0701   -0.7583 H   0  0  0  0  0  0  0  0  0  0  0  0
   -4.2276    0.0139   -0.8839 H   0  0  0  0  0  0  0  0  0  0  0  0
   -2.0010    0.7726   -2.8573 H   0  0  0  0  0  0  0  0  0  0  0  0
   -3.5185    1.6132   -2.5704 H   0  0  0  0  0  0  0  0  0  0  0  0
   -2.2788    1.6064   -1.3198 H   0  0  0  0  0  0  0  0  0  0  0  0
   -3.1409   -1.5082   -3.3138 H   0  0  0  0  0  0  0  0  0  0  0  0
   -4.6689   -0.6169   -3.2438 H   0  0  0  0  0  0  0  0  0  0  0  0
   -4.4372   -2.0445   -2.2289 H   0  0  0  0  0  0  0  0  0  0  0  0
   -1.7478   -1.4949    1.3116 H   0  0  0  0  0  0  0  0  0  0  0  0
   -4.0519   -2.3690    1.0749 H   0  0  0  0  0  0  0  0  0  0  0  0
   -3.8476   -1.3226    2.4808 H   0  0  0  0  0  0  0  0  0  0  0  0
   -4.6844   -0.7107    1.0589 H   0  0  0  0  0  0  0  0  0  0  0  0
   -3.0118    1.2674    0.8635 H   0  0  0  0  0  0  0  0  0  0  0  0
   -1.2648    0.9379    0.8349 H   0  0  0  0  0  0  0  0  0  0  0  0
   -2.1900    0.7013    2.3138 H   0  0  0  0  0  0  0  0  0  0  0  0
    4.0744    0.2277   -1.2565 O   0  0  0  0  0  0  0  0  0  0  0  0
    4.6942    0.6486   -0.6094 H   0  0  0  0  0  0  0  0  0  0  0  0
  1  2  1  0
  2  3  1  0
  4  3  1  1
  4  5  1  0
  4  6  2  0
  7  8  1  0
  8  9  1  0
  9 10  1  0
 10 11  1  0
 11 12  1  0
 11 13  1  0
 10 14  1  0
 14 15  1  0
 14 16  1  0
  1 17  1  0
  1 18  1  0
  1 19  1  0
  2 20  1  0
  2 21  1  0
  5 22  1  0
  5 23  1  0
  5 24  1  0
  8 25  1  0
  8 26  1  0
  9 27  1  0
  9 28  1  0
 10 29  1  0
 11 30  1  0
 12 31  1  0
 12 32  1  0
 12 33  1  0
 13 34  1  0
 13 35  1  0
 13 36  1  0
 14 37  1  0
 15 38  1  0
 15 39  1  0
 15 40  1  0
 16 41  1  0
 16 42  1  0
 16 43  1  0
 44 45  1  0
  4 44  1  0
  4  7  1  0
M  CHG  1  10   1
M  END
$$$$
