VX
     RDKit          3D

 45 44  0  0  0  0  0  0  0  0999 V2000
    3.3542   -2.4974    0.6891 C   0  0  0  0  0  0  0  0  0  0  0  0
    3.7372   -1.0706    1.0230 C   0  0  0  0  0  0  0  0  0  0  0  0
    2.9906   -0.1968    0.1920 O   0  0  0  0  0  0  0  0  0  0  0  0
    2.8426    1.3638    0.5773 P   0  0  0  0  0  0  0  0  0  0  0  0
    4.0414    2.1370    1.6447 C   0  0  0  0  0  0  0  0  0  0  0  0
    1.6903    2.1662    0.0338 O   0  0  0  0  0  0  0  0  0  0  0  0
    1.5457    0.7761    2.4594 S   0  0  0  0  0  0  0  0  0  0  0  0
   -0.0723    0.4333    1.7101 C   0  0  0  0  0  0  0  0  0  0  0  0
   -0.8590    1.7311    1.4660 C   0  0  0  0  0  0  0  0  0  0  0  0
   -2.0204    1.4907    0.4694 N   0  0  0  0  0  0  0  0  0  0  0  0
   -3.2647    2.3515    0.7809 C   0  0  0  0  0  0  0  0  0  0  0  0
   -4.4093    2.0460   -0.1859 C   0  0  0  0  0  0  0  0  0  0  0  0
   -3.7749    2.0449    2.1982 C   0  0  0  0  0  0  0  0  0  0  0  0
   -1.4407    1.5544   -0.9696 C   0  0  0  0  0  0  0  0  0  0  0  0
   -2.1509    0.5670   -1.8914 C   0  0  0  0  0  0  0  0  0  0  0  0
   -1.3802    2.9753   -1.5185 C   0  0  0  0  0  0  0  0  0  0  0  0
    3.9162   -3.2060    1.3040 H   0  0  0  0  0  0  0  0  0  0  0  0
    2.2837   -2.6573    0.8552 H   0  0  0  0  0  0  0  0  0  0  0  0
    3.5489   -2.7121   -0.3666 H   0  0  0  0  0  0  0  0  0  0  0  0
    4.8033   -0.9148    0.8353 H   0  0  0  0  0  0  0  0  0  0  0  0
    3.5285   -0.8655    2.0770 H   0  0  0  0  0  0  0  0  0  0  0  0
    4.8942    2.4990    1.0636 H   0  0  0  0  0  0  0  0  0  0  0  0
    4.4103    1.4411    2.4033 H   0  0  0  0  0  0  0  0  0  0  0  0
    3.5931    2.9909    2.1609 H   0  0  0  0  0  0  0  0  0  0  0  0
    0.0927   -0.1344    0.7902 H   0  0  0  0  0  0  0  0  0  0  0  0
   -0.6388   -0.2134    2.3887 H   0  0  0  0  0  0  0  0  0  0  0  0
   -0.2662    2.5588    1.0712 H   0  0  0  0  0  0  0  0  0  0  0  0
   -1.2714    2.0644    2.4185 H   0  0  0  0  0  0  0  0  0  0  0  0
   -2.3248    0.5199    0.6130 H   0  0  0  0  0  0  0  0  0  0  0  0
   -2.9617    3.4013    0.7090 H   0  0  0  0  0  0  0  0  0  0  0  0
   -4.2173    2.4267   -1.1896 H   0  0  0  0  0  0  0  0  0  0  0  0
   -5.3336    2.5365    0.1414 H   0  0  0  0  0  0  0  0  0  0  0  0
   -4.6107    0.9711   -0.2453 H   0  0  0  0  0  0  0  0  0  0  0  0
   -4.7719    2.4727    2.3556 H   0  0  0  0  0  0  0  0  0  0  0  0
   -3.8415    0.9667    2.3778 H   0  0  0  0  0  0  0  0  0  0  0  0
   -3.1426    2.4880    2.9716 H   0  0  0  0  0  0  0  0  0  0  0  0
   -0.4141    1.1852   -0.8904 H   0  0  0  0  0  0  0  0  0  0  0  0
   -2.2673   -0.4116   -1.4142 H   0  0  0  0  0  0  0  0  0  0  0  0
   -1.5542    0.4172   -2.7986 H   0  0  0  0  0  0  0  0  0  0  0  0
   -3.1320    0.9103   -2.2210 H   0  0  0  0  0  0  0  0  0  0  0  0
   -0.8289    2.9852   -2.4659 H   0  0  0  0  0  0  0  0  0  0  0  0
   -0.8619    3.6527   -0.8337 H   0  0  0  0  0  0  0  0  0  0  0  0
   -2.3677    3.3941   -1.7234 H   0  0  0  0  0  0  0  0  0  0  0  0
    3.8867    1.8369   -0.9379 O   0  0  0  0  0  0  0  0  0  0  0  0
    4.7573    2.2314   -0.6799 H   0  0  0  0  0  0  0  0  0  0  0  0
  1  2  1  0
  2  3  1  0
  4  3  1  1
  4  5  1  0
  4  6  2  0
  7  8  1  0
  8  9  1  0
  9 10  1  0
 10 11  1  0
 11 12  1  0
 11 13  1  0
 10 14  1  0
 14 15  1  0
 14 16  1  0
  1 17  1  0
  1 18  1  0
  1 19  1  0
  2 20  1  0
  2 21  1  0
  5 22  1  0
  5 23  1  0
  5 24  1  0
  8 25  1  0
  8 26  1  0
  9 27  1  0
  9 28  1  0
 10 29  1  0
 11 30  1  0
 12 31  1  0
 12 32  1  0
 12 33  1  0
 13 34  1  0
 13 35  1  0
 13 36  1  0
 14 37  1  0
 15 38  1  0
 15 39  1  0
 15 40  1  0
 16 41  1  0
 16 42  1  0
 16 43  1  0
 44 45  1  0
  4 44  1  0
  4  7  1  0
M  CHG  1  10   1
M  END
$$$$
