VX
     RDKit          3D

 45 44  0  0  0  0  0  0  0  0999 V2000
    4.3043    1.6102    2.2414 C   0  0  0  0  0  0  0  0  0  0  0  0
    3.7083    1.2919    0.8861 C   0  0  0  0  0  0  0  0  0  0  0  0
    2.9933    0.0669    0.9853 O   0  0  0  0  0  0  0  0  0  0  0  0
    2.6876   -0.7346   -0.3840 P   0  0  0  0  0  0  0  0  0  0  0  0
    3.5473   -2.2692   -0.6780 C   0  0  0  0  0  0  0  0  0  0  0  0
    1.7060   -0.2164   -1.3985 O   0  0  0  0  0  0  0  0  0  0  0  0
    0.9509   -1.9140    0.6941 S   0  0  0  0  0  0  0  0  0  0  0  0
   -0.4414   -0.7870    0.4149 C   0  0  0  0  0  0  0  0  0  0  0  0
   -1.6521   -1.1584    1.2695 C   0  0  0  0  0  0  0  0  0  0  0  0
   -2.9247   -0.3790    0.8509 N   0  0  0  0  0  0  0  0  0  0  0  0
   -2.7298    1.1444    0.7852 C   0  0  0  0  0  0  0  0  0  0  0  0
   -3.9369    1.8622    0.1936 C   0  0  0  0  0  0  0  0  0  0  0  0
   -2.2819    1.7728    2.1033 C   0  0  0  0  0  0  0  0  0  0  0  0
   -4.1614   -0.9946    1.5310 C   0  0  0  0  0  0  0  0  0  0  0  0
   -5.3821   -0.9416    0.6180 C   0  0  0  0  0  0  0  0  0  0  0  0
   -4.4371   -0.4330    2.9164 C   0  0  0  0  0  0  0  0  0  0  0  0
    5.0605    0.8597    2.5128 H   0  0  0  0  0  0  0  0  0  0  0  0
    4.7750    2.5984    2.2385 H   0  0  0  0  0  0  0  0  0  0  0  0
    3.5294    1.5882    3.0221 H   0  0  0  0  0  0  0  0  0  0  0  0
    3.0074    2.0783    0.5818 H   0  0  0  0  0  0  0  0  0  0  0  0
    4.5006    1.2119    0.1378 H   0  0  0  0  0  0  0  0  0  0  0  0
    3.7079   -2.8119    0.2577 H   0  0  0  0  0  0  0  0  0  0  0  0
    2.9655   -2.9095   -1.3503 H   0  0  0  0  0  0  0  0  0  0  0  0
    4.5216   -2.0873   -1.1409 H   0  0  0  0  0  0  0  0  0  0  0  0
   -0.6993   -0.8187   -0.6500 H   0  0  0  0  0  0  0  0  0  0  0  0
   -0.0961    0.2234    0.6573 H   0  0  0  0  0  0  0  0  0  0  0  0
   -1.8901   -2.2203    1.1310 H   0  0  0  0  0  0  0  0  0  0  0  0
   -1.4880   -0.9678    2.3355 H   0  0  0  0  0  0  0  0  0  0  0  0
   -3.0388   -0.6446   -0.1381 H   0  0  0  0  0  0  0  0  0  0  0  0
   -1.9225    1.2825    0.0565 H   0  0  0  0  0  0  0  0  0  0  0  0
   -4.7706    1.9198    0.8982 H   0  0  0  0  0  0  0  0  0  0  0  0
   -3.6708    2.8962   -0.0571 H   0  0  0  0  0  0  0  0  0  0  0  0
   -4.2734    1.3846   -0.7321 H   0  0  0  0  0  0  0  0  0  0  0  0
   -1.9119    2.7865    1.9099 H   0  0  0  0  0  0  0  0  0  0  0  0
   -1.4662    1.2246    2.5812 H   0  0  0  0  0  0  0  0  0  0  0  0
   -3.0980    1.8810    2.8211 H   0  0  0  0  0  0  0  0  0  0  0  0
   -3.9267   -2.0588    1.6465 H   0  0  0  0  0  0  0  0  0  0  0  0
   -6.1582   -1.6163    0.9971 H   0  0  0  0  0  0  0  0  0  0  0  0
   -5.8354    0.0484    0.5700 H   0  0  0  0  0  0  0  0  0  0  0  0
   -5.1380   -1.2635   -0.3974 H   0  0  0  0  0  0  0  0  0  0  0  0
   -5.1855   -1.0492    3.4271 H   0  0  0  0  0  0  0  0  0  0  0  0
   -4.8481    0.5798    2.8741 H   0  0  0  0  0  0  0  0  0  0  0  0
   -3.5396   -0.4334    3.5423 H   0  0  0  0  0  0  0  0  0  0  0  0
    4.0858    0.2149   -1.2520 O   0  0  0  0  0  0  0  0  0  0  0  0
    4.7056    0.6359   -0.6049 H   0  0  0  0  0  0  0  0  0  0  0  0
  1  2  1  0
  2  3  1  0
  4  3  1  1
  4  5  1  0
  4  6  2  0
  7  8  1  0
  8  9  1  0
  9 10  1  0
 10 11  1  0
 11 12  1  0
 11 13  1  0
 10 14  1  0
 14 15  1  0
 14 16  1  0
  1 17  1  0
  1 18  1  0
  1 19  1  0
  2 20  1  0
  2 21  1  0
  5 22  1  0
  5 23  1  0
  5 24  1  0
  8 25  1  0
  8 26  1  0
  9 27  1  0
  9 28  1  0
 10 29  1  0
 11 30  1  0
 12 31  1  0
 12 32  1  0
 12 33  1  0
 13 34  1  0
 13 35  1  0
 13 36  1  0
 14 37  1  0
 15 38  1  0
 15 39  1  0
 15 40  1  0
 16 41  1  0
 16 42  1  0
 16 43  1  0
 44 45  1  0
  4 44  1  0
  4  7  1  0
M  CHG  1  10   1
M  END
$$$$
