VX
     RDKit          3D

 45 44  0  0  0  0  0  0  0  0999 V2000
    2.4922   -1.1221   -1.9491 C   0  0  0  0  0  0  0  0  0  0  0  0
    3.5701   -0.5383   -1.0591 C   0  0  0  0  0  0  0  0  0  0  0  0
    2.9950   -0.1981    0.1946 O   0  0  0  0  0  0  0  0  0  0  0  0
    2.8395    1.3651    0.5756 P   0  0  0  0  0  0  0  0  0  0  0  0
    4.0401    2.1338    1.6428 C   0  0  0  0  0  0  0  0  0  0  0  0
    1.6904    2.1693    0.0348 O   0  0  0  0  0  0  0  0  0  0  0  0
    1.5427    0.7774    2.4577 S   0  0  0  0  0  0  0  0  0  0  0  0
    0.1491   -0.1759    1.7907 C   0  0  0  0  0  0  0  0  0  0  0  0
   -0.5928    0.5729    0.6777 C   0  0  0  0  0  0  0  0  0  0  0  0
   -1.8683   -0.1573    0.2179 N   0  0  0  0  0  0  0  0  0  0  0  0
   -3.0655   -0.1805    1.1858 C   0  0  0  0  0  0  0  0  0  0  0  0
   -3.0932   -1.5166    1.9259 C   0  0  0  0  0  0  0  0  0  0  0  0
   -3.1057    1.0116    2.1356 C   0  0  0  0  0  0  0  0  0  0  0  0
   -2.2248    0.2494   -1.2293 C   0  0  0  0  0  0  0  0  0  0  0  0
   -3.1086   -0.8199   -1.8708 C   0  0  0  0  0  0  0  0  0  0  0  0
   -2.8434    1.6404   -1.2944 C   0  0  0  0  0  0  0  0  0  0  0  0
    2.9044   -1.4206   -2.9169 H   0  0  0  0  0  0  0  0  0  0  0  0
    2.0324   -1.9960   -1.4757 H   0  0  0  0  0  0  0  0  0  0  0  0
    1.6919   -0.3937   -2.1158 H   0  0  0  0  0  0  0  0  0  0  0  0
    4.3564   -1.2777   -0.8805 H   0  0  0  0  0  0  0  0  0  0  0  0
    4.0268    0.3350   -1.5355 H   0  0  0  0  0  0  0  0  0  0  0  0
    4.4433    1.4100    2.3567 H   0  0  0  0  0  0  0  0  0  0  0  0
    4.8729    2.5456    1.0667 H   0  0  0  0  0  0  0  0  0  0  0  0
    3.5819    2.9516    2.2062 H   0  0  0  0  0  0  0  0  0  0  0  0
   -0.5040   -0.3875    2.6371 H   0  0  0  0  0  0  0  0  0  0  0  0
    0.5257   -1.1325    1.4142 H   0  0  0  0  0  0  0  0  0  0  0  0
    0.0499    0.6026   -0.2047 H   0  0  0  0  0  0  0  0  0  0  0  0
   -0.8687    1.5946    0.9521 H   0  0  0  0  0  0  0  0  0  0  0  0
   -1.5715   -1.1363    0.1144 H   0  0  0  0  0  0  0  0  0  0  0  0
   -3.9706   -0.1431    0.5738 H   0  0  0  0  0  0  0  0  0  0  0  0
   -2.2310   -1.6528    2.5821 H   0  0  0  0  0  0  0  0  0  0  0  0
   -3.9924   -1.5868    2.5476 H   0  0  0  0  0  0  0  0  0  0  0  0
   -3.1171   -2.3541    1.2202 H   0  0  0  0  0  0  0  0  0  0  0  0
   -2.2850    1.0023    2.8576 H   0  0  0  0  0  0  0  0  0  0  0  0
   -4.0364    0.9949    2.7143 H   0  0  0  0  0  0  0  0  0  0  0  0
   -3.0823    1.9616    1.5938 H   0  0  0  0  0  0  0  0  0  0  0  0
   -1.2780    0.2520   -1.7824 H   0  0  0  0  0  0  0  0  0  0  0  0
   -2.6605   -1.8142   -1.7713 H   0  0  0  0  0  0  0  0  0  0  0  0
   -4.1129   -0.8529   -1.4392 H   0  0  0  0  0  0  0  0  0  0  0  0
   -3.2250   -0.6166   -2.9412 H   0  0  0  0  0  0  0  0  0  0  0  0
   -2.1944    2.3923   -0.8357 H   0  0  0  0  0  0  0  0  0  0  0  0
   -2.9931    1.9348   -2.3391 H   0  0  0  0  0  0  0  0  0  0  0  0
   -3.8208    1.6841   -0.8050 H   0  0  0  0  0  0  0  0  0  0  0  0
    3.8836    1.8383   -0.9397 O   0  0  0  0  0  0  0  0  0  0  0  0
    4.7541    2.2328   -0.6817 H   0  0  0  0  0  0  0  0  0  0  0  0
  1  2  1  0
  2  3  1  0
  4  3  1  1
  4  5  1  0
  4  6  2  0
  7  8  1  0
  8  9  1  0
  9 10  1  0
 10 11  1  0
 11 12  1  0
 11 13  1  0
 10 14  1  0
 14 15  1  0
 14 16  1  0
  1 17  1  0
  1 18  1  0
  1 19  1  0
  2 20  1  0
  2 21  1  0
  5 22  1  0
  5 23  1  0
  5 24  1  0
  8 25  1  0
  8 26  1  0
  9 27  1  0
  9 28  1  0
 10 29  1  0
 11 30  1  0
 12 31  1  0
 12 32  1  0
 12 33  1  0
 13 34  1  0
 13 35  1  0
 13 36  1  0
 14 37  1  0
 15 38  1  0
 15 39  1  0
 15 40  1  0
 16 41  1  0
 16 42  1  0
 16 43  1  0
 44 45  1  0
  4 44  1  0
  4  7  1  0
M  CHG  1  10   1
M  END
$$$$
