VX
     RDKit          3D

 45 44  0  0  0  0  0  0  0  0999 V2000
    3.6329   -1.4906    2.1319 C   0  0  0  0  0  0  0  0  0  0  0  0
    3.9609   -1.0627    0.7169 C   0  0  0  0  0  0  0  0  0  0  0  0
    2.9748   -0.1966    0.1811 O   0  0  0  0  0  0  0  0  0  0  0  0
    2.8525    1.3632    0.5839 P   0  0  0  0  0  0  0  0  0  0  0  0
    4.0416    2.1497    1.6489 C   0  0  0  0  0  0  0  0  0  0  0  0
    1.6961    2.1537    0.0339 O   0  0  0  0  0  0  0  0  0  0  0  0
    1.5556    0.7755    2.4660 S   0  0  0  0  0  0  0  0  0  0  0  0
   -0.1536    0.8496    1.8425 C   0  0  0  0  0  0  0  0  0  0  0  0
   -0.3583   -0.0727    0.6316 C   0  0  0  0  0  0  0  0  0  0  0  0
   -1.8224   -0.2162    0.1688 N   0  0  0  0  0  0  0  0  0  0  0  0
   -2.5667    1.1305    0.0088 C   0  0  0  0  0  0  0  0  0  0  0  0
   -1.8266    2.0072   -1.0062 C   0  0  0  0  0  0  0  0  0  0  0  0
   -3.9991    0.9213   -0.4877 C   0  0  0  0  0  0  0  0  0  0  0  0
   -2.6147   -1.3532    0.8355 C   0  0  0  0  0  0  0  0  0  0  0  0
   -1.9612   -2.7079    0.5557 C   0  0  0  0  0  0  0  0  0  0  0  0
   -2.8336   -1.1214    2.3220 C   0  0  0  0  0  0  0  0  0  0  0  0
    3.7373   -0.6534    2.8273 H   0  0  0  0  0  0  0  0  0  0  0  0
    4.3098   -2.2847    2.4604 H   0  0  0  0  0  0  0  0  0  0  0  0
    2.6018   -1.8513    2.2024 H   0  0  0  0  0  0  0  0  0  0  0  0
    3.9843   -1.9491    0.0744 H   0  0  0  0  0  0  0  0  0  0  0  0
    4.9520   -0.6056    0.6581 H   0  0  0  0  0  0  0  0  0  0  0  0
    4.4053    1.4674    2.4218 H   0  0  0  0  0  0  0  0  0  0  0  0
    3.5863    3.0079    2.1521 H   0  0  0  0  0  0  0  0  0  0  0  0
    4.8970    2.5119    1.0718 H   0  0  0  0  0  0  0  0  0  0  0  0
   -0.8069    0.5836    2.6734 H   0  0  0  0  0  0  0  0  0  0  0  0
   -0.3644    1.8915    1.5879 H   0  0  0  0  0  0  0  0  0  0  0  0
    0.1816    0.2870   -0.2481 H   0  0  0  0  0  0  0  0  0  0  0  0
    0.0195   -1.0772    0.8341 H   0  0  0  0  0  0  0  0  0  0  0  0
   -1.7256   -0.5444   -0.8024 H   0  0  0  0  0  0  0  0  0  0  0  0
   -2.5900    1.6099    0.9922 H   0  0  0  0  0  0  0  0  0  0  0  0
   -0.8353    2.3003   -0.6551 H   0  0  0  0  0  0  0  0  0  0  0  0
   -2.3792    2.9359   -1.1877 H   0  0  0  0  0  0  0  0  0  0  0  0
   -1.7099    1.4945   -1.9674 H   0  0  0  0  0  0  0  0  0  0  0  0
   -4.6317    0.4727    0.2844 H   0  0  0  0  0  0  0  0  0  0  0  0
   -4.0289    0.2889   -1.3815 H   0  0  0  0  0  0  0  0  0  0  0  0
   -4.4635    1.8808   -0.7422 H   0  0  0  0  0  0  0  0  0  0  0  0
   -3.5833   -1.3840    0.3300 H   0  0  0  0  0  0  0  0  0  0  0  0
   -2.6533   -3.5160    0.8185 H   0  0  0  0  0  0  0  0  0  0  0  0
   -1.7118   -2.8195   -0.5045 H   0  0  0  0  0  0  0  0  0  0  0  0
   -1.0540   -2.8667    1.1462 H   0  0  0  0  0  0  0  0  0  0  0  0
   -3.5658   -1.8405    2.7066 H   0  0  0  0  0  0  0  0  0  0  0  0
   -1.9153   -1.2718    2.8972 H   0  0  0  0  0  0  0  0  0  0  0  0
   -3.2225   -0.1204    2.5290 H   0  0  0  0  0  0  0  0  0  0  0  0
    3.8966    1.8363   -0.9313 O   0  0  0  0  0  0  0  0  0  0  0  0
    4.7672    2.2308   -0.6733 H   0  0  0  0  0  0  0  0  0  0  0  0
  1  2  1  0
  2  3  1  0
  4  3  1  1
  4  5  1  0
  4  6  2  0
  7  8  1  0
  8  9  1  0
  9 10  1  0
 10 11  1  0
 11 12  1  0
 11 13  1  0
 10 14  1  0
 14 15  1  0
 14 16  1  0
  1 17  1  0
  1 18  1  0
  1 19  1  0
  2 20  1  0
  2 21  1  0
  5 22  1  0
  5 23  1  0
  5 24  1  0
  8 25  1  0
  8 26  1  0
  9 27  1  0
  9 28  1  0
 10 29  1  0
 11 30  1  0
 12 31  1  0
 12 32  1  0
 12 33  1  0
 13 34  1  0
 13 35  1  0
 13 36  1  0
 14 37  1  0
 15 38  1  0
 15 39  1  0
 15 40  1  0
 16 41  1  0
 16 42  1  0
 16 43  1  0
 44 45  1  0
  4 44  1  0
  4  7  1  0
M  CHG  1  10   1
M  END
$$$$
