VX
     RDKit          3D

 45 44  0  0  0  0  0  0  0  0999 V2000
    3.2344    0.2655    3.3390 C   0  0  0  0  0  0  0  0  0  0  0  0
    3.5482   -0.5556    2.1054 C   0  0  0  0  0  0  0  0  0  0  0  0
    2.9748    0.0876    0.9782 O   0  0  0  0  0  0  0  0  0  0  0  0
    2.6995   -0.7472   -0.3787 P   0  0  0  0  0  0  0  0  0  0  0  0
    3.5457   -2.2814   -0.6939 C   0  0  0  0  0  0  0  0  0  0  0  0
    1.7142   -0.2123   -1.3808 O   0  0  0  0  0  0  0  0  0  0  0  0
    0.9628   -1.9267    0.6994 S   0  0  0  0  0  0  0  0  0  0  0  0
   -0.5231   -0.9721    0.2598 C   0  0  0  0  0  0  0  0  0  0  0  0
   -0.4108    0.4947    0.6939 C   0  0  0  0  0  0  0  0  0  0  0  0
   -1.7449    1.2500    0.5602 N   0  0  0  0  0  0  0  0  0  0  0  0
   -2.2553    1.5286   -0.8674 C   0  0  0  0  0  0  0  0  0  0  0  0
   -3.2336    0.4295   -1.2788 C   0  0  0  0  0  0  0  0  0  0  0  0
   -1.1424    1.7207   -1.8908 C   0  0  0  0  0  0  0  0  0  0  0  0
   -1.7791    2.4693    1.5030 C   0  0  0  0  0  0  0  0  0  0  0  0
   -0.9499    3.6309    0.9705 C   0  0  0  0  0  0  0  0  0  0  0  0
   -3.2260    2.8658    1.7955 C   0  0  0  0  0  0  0  0  0  0  0  0
    3.6274    1.2825    3.2363 H   0  0  0  0  0  0  0  0  0  0  0  0
    2.1516    0.3552    3.4763 H   0  0  0  0  0  0  0  0  0  0  0  0
    3.6673   -0.1916    4.2330 H   0  0  0  0  0  0  0  0  0  0  0  0
    4.6309   -0.6209    1.9627 H   0  0  0  0  0  0  0  0  0  0  0  0
    3.1440   -1.5660    2.2161 H   0  0  0  0  0  0  0  0  0  0  0  0
    4.5161   -2.0942   -1.1622 H   0  0  0  0  0  0  0  0  0  0  0  0
    3.7106   -2.8466    0.2274 H   0  0  0  0  0  0  0  0  0  0  0  0
    2.9563   -2.9070   -1.3704 H   0  0  0  0  0  0  0  0  0  0  0  0
   -0.6629   -1.0614   -0.8189 H   0  0  0  0  0  0  0  0  0  0  0  0
   -1.3786   -1.4489    0.7490 H   0  0  0  0  0  0  0  0  0  0  0  0
    0.3452    1.0630    0.1503 H   0  0  0  0  0  0  0  0  0  0  0  0
   -0.1535    0.5237    1.7591 H   0  0  0  0  0  0  0  0  0  0  0  0
   -2.4357    0.6149    0.9800 H   0  0  0  0  0  0  0  0  0  0  0  0
   -2.8283    2.4585   -0.8212 H   0  0  0  0  0  0  0  0  0  0  0  0
   -2.7523   -0.5465   -1.3735 H   0  0  0  0  0  0  0  0  0  0  0  0
   -4.0485    0.3376   -0.5527 H   0  0  0  0  0  0  0  0  0  0  0  0
   -3.6845    0.6675   -2.2485 H   0  0  0  0  0  0  0  0  0  0  0  0
   -0.4148    2.4717   -1.5716 H   0  0  0  0  0  0  0  0  0  0  0  0
   -0.6115    0.7908   -2.1077 H   0  0  0  0  0  0  0  0  0  0  0  0
   -1.5675    2.0674   -2.8397 H   0  0  0  0  0  0  0  0  0  0  0  0
   -1.3459    2.1265    2.4502 H   0  0  0  0  0  0  0  0  0  0  0  0
   -0.9142    4.4364    1.7126 H   0  0  0  0  0  0  0  0  0  0  0  0
    0.0825    3.3307    0.7687 H   0  0  0  0  0  0  0  0  0  0  0  0
   -1.3723    4.0565    0.0554 H   0  0  0  0  0  0  0  0  0  0  0  0
   -3.7293    3.2977    0.9260 H   0  0  0  0  0  0  0  0  0  0  0  0
   -3.2544    3.6188    2.5909 H   0  0  0  0  0  0  0  0  0  0  0  0
   -3.8103    2.0047    2.1365 H   0  0  0  0  0  0  0  0  0  0  0  0
    4.0977    0.2024   -1.2467 O   0  0  0  0  0  0  0  0  0  0  0  0
    4.7175    0.6233   -0.5995 H   0  0  0  0  0  0  0  0  0  0  0  0
  1  2  1  0
  2  3  1  0
  4  3  1  1
  4  5  1  0
  4  6  2  0
  7  8  1  0
  8  9  1  0
  9 10  1  0
 10 11  1  0
 11 12  1  0
 11 13  1  0
 10 14  1  0
 14 15  1  0
 14 16  1  0
  1 17  1  0
  1 18  1  0
  1 19  1  0
  2 20  1  0
  2 21  1  0
  5 22  1  0
  5 23  1  0
  5 24  1  0
  8 25  1  0
  8 26  1  0
  9 27  1  0
  9 28  1  0
 10 29  1  0
 11 30  1  0
 12 31  1  0
 12 32  1  0
 12 33  1  0
 13 34  1  0
 13 35  1  0
 13 36  1  0
 14 37  1  0
 15 38  1  0
 15 39  1  0
 15 40  1  0
 16 41  1  0
 16 42  1  0
 16 43  1  0
 44 45  1  0
  4 44  1  0
  4  7  1  0
M  CHG  1  10   1
M  END
$$$$
