VX
     RDKit          3D

 45 44  0  0  0  0  0  0  0  0999 V2000
    2.4074   -1.1932   -1.8874 C   0  0  0  0  0  0  0  0  0  0  0  0
    3.5426   -0.5974   -1.0625 C   0  0  0  0  0  0  0  0  0  0  0  0
    3.0066   -0.1990    0.2023 O   0  0  0  0  0  0  0  0  0  0  0  0
    2.8372    1.3625    0.5731 P   0  0  0  0  0  0  0  0  0  0  0  0
    4.0437    2.1246    1.6425 C   0  0  0  0  0  0  0  0  0  0  0  0
    1.6774    2.1820    0.0299 O   0  0  0  0  0  0  0  0  0  0  0  0
    1.5403    0.7748    2.4552 S   0  0  0  0  0  0  0  0  0  0  0  0
    0.1112   -0.0371    1.6617 C   0  0  0  0  0  0  0  0  0  0  0  0
   -1.2173    0.7379    1.7704 C   0  0  0  0  0  0  0  0  0  0  0  0
   -1.1575    2.1707    1.1935 N   0  0  0  0  0  0  0  0  0  0  0  0
   -1.8760    2.3202   -0.1674 C   0  0  0  0  0  0  0  0  0  0  0  0
   -1.2716    1.4014   -1.2287 C   0  0  0  0  0  0  0  0  0  0  0  0
   -3.3938    2.1029   -0.0552 C   0  0  0  0  0  0  0  0  0  0  0  0
   -1.5819    3.2317    2.2488 C   0  0  0  0  0  0  0  0  0  0  0  0
   -0.5670    3.2765    3.3943 C   0  0  0  0  0  0  0  0  0  0  0  0
   -1.6987    4.6413    1.6425 C   0  0  0  0  0  0  0  0  0  0  0  0
    1.6436   -0.4307   -2.0714 H   0  0  0  0  0  0  0  0  0  0  0  0
    2.7668   -1.5646   -2.8537 H   0  0  0  0  0  0  0  0  0  0  0  0
    1.9170   -2.0037   -1.3507 H   0  0  0  0  0  0  0  0  0  0  0  0
    4.3361   -1.3398   -0.8843 H   0  0  0  0  0  0  0  0  0  0  0  0
    3.9892    0.2637   -1.6077 H   0  0  0  0  0  0  0  0  0  0  0  0
    3.6478    3.0180    2.1181 H   0  0  0  0  0  0  0  0  0  0  0  0
    4.3686    1.4473    2.4364 H   0  0  0  0  0  0  0  0  0  0  0  0
    4.9210    2.4090    1.0710 H   0  0  0  0  0  0  0  0  0  0  0  0
    0.3456   -0.2325    0.6006 H   0  0  0  0  0  0  0  0  0  0  0  0
    0.0030   -1.0092    2.1413 H   0  0  0  0  0  0  0  0  0  0  0  0
   -1.5813    0.7771    2.8090 H   0  0  0  0  0  0  0  0  0  0  0  0
   -1.9892    0.1956    1.2234 H   0  0  0  0  0  0  0  0  0  0  0  0
   -0.1616    2.3700    0.9812 H   0  0  0  0  0  0  0  0  0  0  0  0
   -1.6805    3.3511   -0.4994 H   0  0  0  0  0  0  0  0  0  0  0  0
   -1.7025    1.6290   -2.2098 H   0  0  0  0  0  0  0  0  0  0  0  0
   -1.4667    0.3453   -1.0253 H   0  0  0  0  0  0  0  0  0  0  0  0
   -0.1893    1.5362   -1.3081 H   0  0  0  0  0  0  0  0  0  0  0  0
   -3.8513    2.6490    0.7793 H   0  0  0  0  0  0  0  0  0  0  0  0
   -3.6619    1.0441    0.0387 H   0  0  0  0  0  0  0  0  0  0  0  0
   -3.8790    2.4695   -0.9696 H   0  0  0  0  0  0  0  0  0  0  0  0
   -2.5617    2.9080    2.6449 H   0  0  0  0  0  0  0  0  0  0  0  0
   -0.8601    4.0260    4.1410 H   0  0  0  0  0  0  0  0  0  0  0  0
   -0.5045    2.3171    3.9355 H   0  0  0  0  0  0  0  0  0  0  0  0
    0.4412    3.5385    3.0412 H   0  0  0  0  0  0  0  0  0  0  0  0
   -1.8321    5.3966    2.4345 H   0  0  0  0  0  0  0  0  0  0  0  0
   -0.7899    4.9021    1.0796 H   0  0  0  0  0  0  0  0  0  0  0  0
   -2.5793    4.7283    0.9894 H   0  0  0  0  0  0  0  0  0  0  0  0
    3.8813    1.8356   -0.9421 O   0  0  0  0  0  0  0  0  0  0  0  0
    4.7519    2.2301   -0.6841 H   0  0  0  0  0  0  0  0  0  0  0  0
  1  2  1  0
  2  3  1  0
  4  3  1  1
  4  5  1  0
  4  6  2  0
  7  8  1  0
  8  9  1  0
  9 10  1  0
 10 11  1  0
 11 12  1  0
 11 13  1  0
 10 14  1  0
 14 15  1  0
 14 16  1  0
  1 17  1  0
  1 18  1  0
  1 19  1  0
  2 20  1  0
  2 21  1  0
  5 22  1  0
  5 23  1  0
  5 24  1  0
  8 25  1  0
  8 26  1  0
  9 27  1  0
  9 28  1  0
 10 29  1  0
 11 30  1  0
 12 31  1  0
 12 32  1  0
 12 33  1  0
 13 34  1  0
 13 35  1  0
 13 36  1  0
 14 37  1  0
 15 38  1  0
 15 39  1  0
 15 40  1  0
 16 41  1  0
 16 42  1  0
 16 43  1  0
 44 45  1  0
  4 44  1  0
  4  7  1  0
M  CHG  1  10   1
M  END
$$$$
