VX
     RDKit          3D

 45 44  0  0  0  0  0  0  0  0999 V2000
    2.4355   -1.0501   -1.9662 C   0  0  0  0  0  0  0  0  0  0  0  0
    3.5447   -0.5386   -1.0700 C   0  0  0  0  0  0  0  0  0  0  0  0
    2.9956   -0.1977    0.1951 O   0  0  0  0  0  0  0  0  0  0  0  0
    2.8393    1.3650    0.5754 P   0  0  0  0  0  0  0  0  0  0  0  0
    4.0398    2.1330    1.6424 C   0  0  0  0  0  0  0  0  0  0  0  0
    1.6902    2.1698    0.0349 O   0  0  0  0  0  0  0  0  0  0  0  0
    1.5425    0.7774    2.4575 S   0  0  0  0  0  0  0  0  0  0  0  0
    0.1184   -0.1099    1.7596 C   0  0  0  0  0  0  0  0  0  0  0  0
   -0.6158    0.7232    0.7005 C   0  0  0  0  0  0  0  0  0  0  0  0
   -2.0334    0.2250    0.3593 N   0  0  0  0  0  0  0  0  0  0  0  0
   -3.1323    0.8977    1.1908 C   0  0  0  0  0  0  0  0  0  0  0  0
   -3.0732    0.5885    2.6800 C   0  0  0  0  0  0  0  0  0  0  0  0
   -4.5178    0.6553    0.6045 C   0  0  0  0  0  0  0  0  0  0  0  0
   -2.0773   -1.2477   -0.0641 C   0  0  0  0  0  0  0  0  0  0  0  0
   -2.4975   -2.2024    1.0414 C   0  0  0  0  0  0  0  0  0  0  0  0
   -2.9253   -1.4239   -1.3248 C   0  0  0  0  0  0  0  0  0  0  0  0
    1.6681   -0.2835   -2.1103 H   0  0  0  0  0  0  0  0  0  0  0  0
    1.9400   -1.9131   -1.5103 H   0  0  0  0  0  0  0  0  0  0  0  0
    2.8275   -1.3437   -2.9438 H   0  0  0  0  0  0  0  0  0  0  0  0
    4.2932   -1.3212   -0.9133 H   0  0  0  0  0  0  0  0  0  0  0  0
    4.0426    0.3219   -1.5280 H   0  0  0  0  0  0  0  0  0  0  0  0
    3.5850    2.9610    2.1929 H   0  0  0  0  0  0  0  0  0  0  0  0
    4.8805    2.5321    1.0685 H   0  0  0  0  0  0  0  0  0  0  0  0
    4.4315    1.4143    2.3675 H   0  0  0  0  0  0  0  0  0  0  0  0
    0.4886   -1.0422    1.3220 H   0  0  0  0  0  0  0  0  0  0  0  0
   -0.5284   -0.3764    2.5956 H   0  0  0  0  0  0  0  0  0  0  0  0
   -0.0769    0.6780   -0.2516 H   0  0  0  0  0  0  0  0  0  0  0  0
   -0.7188    1.7743    0.9910 H   0  0  0  0  0  0  0  0  0  0  0  0
   -2.1678    0.7088   -0.5398 H   0  0  0  0  0  0  0  0  0  0  0  0
   -2.9381    1.9725    1.0760 H   0  0  0  0  0  0  0  0  0  0  0  0
   -3.1729   -0.4734    2.9059 H   0  0  0  0  0  0  0  0  0  0  0  0
   -3.8921    1.1004    3.1996 H   0  0  0  0  0  0  0  0  0  0  0  0
   -2.1496    0.9601    3.1302 H   0  0  0  0  0  0  0  0  0  0  0  0
   -4.5453    0.8961   -0.4628 H   0  0  0  0  0  0  0  0  0  0  0  0
   -5.2519    1.3027    1.0978 H   0  0  0  0  0  0  0  0  0  0  0  0
   -4.8579   -0.3727    0.7472 H   0  0  0  0  0  0  0  0  0  0  0  0
   -1.0511   -1.4971   -0.3591 H   0  0  0  0  0  0  0  0  0  0  0  0
   -1.8711   -2.1049    1.9304 H   0  0  0  0  0  0  0  0  0  0  0  0
   -2.3949   -3.2375    0.6960 H   0  0  0  0  0  0  0  0  0  0  0  0
   -3.5430   -2.0727    1.3302 H   0  0  0  0  0  0  0  0  0  0  0  0
   -3.9941   -1.3114   -1.1338 H   0  0  0  0  0  0  0  0  0  0  0  0
   -2.7798   -2.4305   -1.7337 H   0  0  0  0  0  0  0  0  0  0  0  0
   -2.6345   -0.7119   -2.1041 H   0  0  0  0  0  0  0  0  0  0  0  0
    3.8834    1.8381   -0.9399 O   0  0  0  0  0  0  0  0  0  0  0  0
    4.7540    2.2326   -0.6819 H   0  0  0  0  0  0  0  0  0  0  0  0
  1  2  1  0
  2  3  1  0
  4  3  1  1
  4  5  1  0
  4  6  2  0
  7  8  1  0
  8  9  1  0
  9 10  1  0
 10 11  1  0
 11 12  1  0
 11 13  1  0
 10 14  1  0
 14 15  1  0
 14 16  1  0
  1 17  1  0
  1 18  1  0
  1 19  1  0
  2 20  1  0
  2 21  1  0
  5 22  1  0
  5 23  1  0
  5 24  1  0
  8 25  1  0
  8 26  1  0
  9 27  1  0
  9 28  1  0
 10 29  1  0
 11 30  1  0
 12 31  1  0
 12 32  1  0
 12 33  1  0
 13 34  1  0
 13 35  1  0
 13 36  1  0
 14 37  1  0
 15 38  1  0
 15 39  1  0
 15 40  1  0
 16 41  1  0
 16 42  1  0
 16 43  1  0
 44 45  1  0
  4 44  1  0
  4  7  1  0
M  CHG  1  10   1
M  END
$$$$
