VX
     RDKit          3D

 45 44  0  0  0  0  0  0  0  0999 V2000
    3.2414    0.2475    3.3431 C   0  0  0  0  0  0  0  0  0  0  0  0
    3.5242   -0.5880    2.1117 C   0  0  0  0  0  0  0  0  0  0  0  0
    2.9843    0.0762    0.9810 O   0  0  0  0  0  0  0  0  0  0  0  0
    2.6936   -0.7405   -0.3808 P   0  0  0  0  0  0  0  0  0  0  0  0
    3.5470   -2.2753   -0.6852 C   0  0  0  0  0  0  0  0  0  0  0  0
    1.7093   -0.2137   -1.3902 O   0  0  0  0  0  0  0  0  0  0  0  0
    0.9568   -1.9199    0.6973 S   0  0  0  0  0  0  0  0  0  0  0  0
   -0.4714   -1.6475   -0.4050 C   0  0  0  0  0  0  0  0  0  0  0  0
   -0.9311   -0.1811   -0.4787 C   0  0  0  0  0  0  0  0  0  0  0  0
   -2.1131    0.1977    0.4409 N   0  0  0  0  0  0  0  0  0  0  0  0
   -1.8320   -0.0154    1.9337 C   0  0  0  0  0  0  0  0  0  0  0  0
   -2.2637    1.2078    2.7468 C   0  0  0  0  0  0  0  0  0  0  0  0
   -2.4108   -1.2998    2.5038 C   0  0  0  0  0  0  0  0  0  0  0  0
   -3.4875   -0.0342   -0.1966 C   0  0  0  0  0  0  0  0  0  0  0  0
   -4.5983    0.6794    0.5644 C   0  0  0  0  0  0  0  0  0  0  0  0
   -3.8198   -1.4956   -0.4635 C   0  0  0  0  0  0  0  0  0  0  0  0
    3.6772    1.2467    3.2405 H   0  0  0  0  0  0  0  0  0  0  0  0
    2.1629    0.3827    3.4770 H   0  0  0  0  0  0  0  0  0  0  0  0
    3.6517   -0.2265    4.2391 H   0  0  0  0  0  0  0  0  0  0  0  0
    3.0771   -1.5800    2.2220 H   0  0  0  0  0  0  0  0  0  0  0  0
    4.6038   -0.6999    1.9744 H   0  0  0  0  0  0  0  0  0  0  0  0
    3.7188   -2.8294    0.2416 H   0  0  0  0  0  0  0  0  0  0  0  0
    4.5141   -2.0872   -1.1598 H   0  0  0  0  0  0  0  0  0  0  0  0
    2.9574   -2.9105   -1.3525 H   0  0  0  0  0  0  0  0  0  0  0  0
   -0.1566   -1.9704   -1.4032 H   0  0  0  0  0  0  0  0  0  0  0  0
   -1.2673   -2.3235   -0.0940 H   0  0  0  0  0  0  0  0  0  0  0  0
   -1.2611    0.0514   -1.4974 H   0  0  0  0  0  0  0  0  0  0  0  0
   -0.1391    0.5305   -0.2257 H   0  0  0  0  0  0  0  0  0  0  0  0
   -2.0512    1.2222    0.3678 H   0  0  0  0  0  0  0  0  0  0  0  0
   -0.7425   -0.0501    2.0253 H   0  0  0  0  0  0  0  0  0  0  0  0
   -3.3480    1.2901    2.8439 H   0  0  0  0  0  0  0  0  0  0  0  0
   -1.8821    2.1362    2.3092 H   0  0  0  0  0  0  0  0  0  0  0  0
   -1.8602    1.1392    3.7637 H   0  0  0  0  0  0  0  0  0  0  0  0
   -3.5028   -1.2847    2.5399 H   0  0  0  0  0  0  0  0  0  0  0  0
   -2.0912   -2.1834    1.9488 H   0  0  0  0  0  0  0  0  0  0  0  0
   -2.0660   -1.4352    3.5357 H   0  0  0  0  0  0  0  0  0  0  0  0
   -3.4207    0.4656   -1.1721 H   0  0  0  0  0  0  0  0  0  0  0  0
   -5.5239    0.6650   -0.0227 H   0  0  0  0  0  0  0  0  0  0  0  0
   -4.3486    1.7306    0.7408 H   0  0  0  0  0  0  0  0  0  0  0  0
   -4.8240    0.2000    1.5197 H   0  0  0  0  0  0  0  0  0  0  0  0
   -3.1274   -1.9394   -1.1833 H   0  0  0  0  0  0  0  0  0  0  0  0
   -4.8169   -1.5750   -0.9128 H   0  0  0  0  0  0  0  0  0  0  0  0
   -3.8312   -2.1083    0.4383 H   0  0  0  0  0  0  0  0  0  0  0  0
    4.0919    0.2090   -1.2487 O   0  0  0  0  0  0  0  0  0  0  0  0
    4.7117    0.6299   -0.6016 H   0  0  0  0  0  0  0  0  0  0  0  0
  1  2  1  0
  2  3  1  0
  4  3  1  1
  4  5  1  0
  4  6  2  0
  7  8  1  0
  8  9  1  0
  9 10  1  0
 10 11  1  0
 11 12  1  0
 11 13  1  0
 10 14  1  0
 14 15  1  0
 14 16  1  0
  1 17  1  0
  1 18  1  0
  1 19  1  0
  2 20  1  0
  2 21  1  0
  5 22  1  0
  5 23  1  0
  5 24  1  0
  8 25  1  0
  8 26  1  0
  9 27  1  0
  9 28  1  0
 10 29  1  0
 11 30  1  0
 12 31  1  0
 12 32  1  0
 12 33  1  0
 13 34  1  0
 13 35  1  0
 13 36  1  0
 14 37  1  0
 15 38  1  0
 15 39  1  0
 15 40  1  0
 16 41  1  0
 16 42  1  0
 16 43  1  0
 44 45  1  0
  4 44  1  0
  4  7  1  0
M  CHG  1  10   1
M  END
$$$$
