VX
     RDKit          3D

 45 44  0  0  0  0  0  0  0  0999 V2000
    3.1510    2.4457    1.1585 C   0  0  0  0  0  0  0  0  0  0  0  0
    3.9093    1.1505    0.9540 C   0  0  0  0  0  0  0  0  0  0  0  0
    2.9925    0.0661    0.9831 O   0  0  0  0  0  0  0  0  0  0  0  0
    2.6878   -0.7346   -0.3837 P   0  0  0  0  0  0  0  0  0  0  0  0
    3.5466   -2.2680   -0.6779 C   0  0  0  0  0  0  0  0  0  0  0  0
    1.7073   -0.2168   -1.3967 O   0  0  0  0  0  0  0  0  0  0  0  0
    0.9511   -1.9141    0.6944 S   0  0  0  0  0  0  0  0  0  0  0  0
   -0.2939   -2.1594   -0.6158 C   0  0  0  0  0  0  0  0  0  0  0  0
   -1.1361   -0.8961   -0.8641 C   0  0  0  0  0  0  0  0  0  0  0  0
   -1.6095   -0.2559    0.4474 N   0  0  0  0  0  0  0  0  0  0  0  0
   -1.8170    1.2639    0.3848 C   0  0  0  0  0  0  0  0  0  0  0  0
   -2.4933    1.7181   -0.9077 C   0  0  0  0  0  0  0  0  0  0  0  0
   -0.4680    1.9566    0.5766 C   0  0  0  0  0  0  0  0  0  0  0  0
   -2.6900   -1.0585    1.1798 C   0  0  0  0  0  0  0  0  0  0  0  0
   -4.0818   -0.8167    0.6129 C   0  0  0  0  0  0  0  0  0  0  0  0
   -2.6217   -0.7697    2.6790 C   0  0  0  0  0  0  0  0  0  0  0  0
    2.5758    2.4136    2.0898 H   0  0  0  0  0  0  0  0  0  0  0  0
    3.8358    3.2974    1.1944 H   0  0  0  0  0  0  0  0  0  0  0  0
    2.4351    2.6055    0.3462 H   0  0  0  0  0  0  0  0  0  0  0  0
    4.6292    1.0029    1.7645 H   0  0  0  0  0  0  0  0  0  0  0  0
    4.4626    1.1757    0.0098 H   0  0  0  0  0  0  0  0  0  0  0  0
    3.7832   -2.7667    0.2666 H   0  0  0  0  0  0  0  0  0  0  0  0
    4.4819   -2.0976   -1.2178 H   0  0  0  0  0  0  0  0  0  0  0  0
    2.9283   -2.9431   -1.2768 H   0  0  0  0  0  0  0  0  0  0  0  0
    0.2055   -2.4662   -1.5404 H   0  0  0  0  0  0  0  0  0  0  0  0
   -0.9373   -2.9904   -0.3117 H   0  0  0  0  0  0  0  0  0  0  0  0
   -0.5384   -0.1520   -1.3928 H   0  0  0  0  0  0  0  0  0  0  0  0
   -2.0201   -1.1188   -1.4690 H   0  0  0  0  0  0  0  0  0  0  0  0
   -0.7795   -0.3758    1.0509 H   0  0  0  0  0  0  0  0  0  0  0  0
   -2.4529    1.5342    1.2323 H   0  0  0  0  0  0  0  0  0  0  0  0
   -1.8408    1.6077   -1.7795 H   0  0  0  0  0  0  0  0  0  0  0  0
   -3.4201    1.1764   -1.1084 H   0  0  0  0  0  0  0  0  0  0  0  0
   -2.7483    2.7817   -0.8378 H   0  0  0  0  0  0  0  0  0  0  0  0
   -0.5994    3.0431    0.6174 H   0  0  0  0  0  0  0  0  0  0  0  0
    0.2210    1.7379   -0.2440 H   0  0  0  0  0  0  0  0  0  0  0  0
    0.0065    1.6470    1.5140 H   0  0  0  0  0  0  0  0  0  0  0  0
   -2.4363   -2.1138    1.0407 H   0  0  0  0  0  0  0  0  0  0  0  0
   -4.8041   -1.4854    1.0945 H   0  0  0  0  0  0  0  0  0  0  0  0
   -4.4269    0.2064    0.7891 H   0  0  0  0  0  0  0  0  0  0  0  0
   -4.1209   -1.0197   -0.4613 H   0  0  0  0  0  0  0  0  0  0  0  0
   -3.2922   -1.4433    3.2239 H   0  0  0  0  0  0  0  0  0  0  0  0
   -1.6100   -0.9284    3.0668 H   0  0  0  0  0  0  0  0  0  0  0  0
   -2.9239    0.2531    2.9220 H   0  0  0  0  0  0  0  0  0  0  0  0
    4.0860    0.2150   -1.2517 O   0  0  0  0  0  0  0  0  0  0  0  0
    4.7058    0.6359   -0.6045 H   0  0  0  0  0  0  0  0  0  0  0  0
  1  2  1  0
  2  3  1  0
  4  3  1  1
  4  5  1  0
  4  6  2  0
  7  8  1  0
  8  9  1  0
  9 10  1  0
 10 11  1  0
 11 12  1  0
 11 13  1  0
 10 14  1  0
 14 15  1  0
 14 16  1  0
  1 17  1  0
  1 18  1  0
  1 19  1  0
  2 20  1  0
  2 21  1  0
  5 22  1  0
  5 23  1  0
  5 24  1  0
  8 25  1  0
  8 26  1  0
  9 27  1  0
  9 28  1  0
 10 29  1  0
 11 30  1  0
 12 31  1  0
 12 32  1  0
 12 33  1  0
 13 34  1  0
 13 35  1  0
 13 36  1  0
 14 37  1  0
 15 38  1  0
 15 39  1  0
 15 40  1  0
 16 41  1  0
 16 42  1  0
 16 43  1  0
 44 45  1  0
  4 44  1  0
  4  7  1  0
M  CHG  1  10   1
M  END
$$$$
