VX
     RDKit          3D

 45 44  0  0  0  0  0  0  0  0999 V2000
    2.5600   -0.8225   -2.0712 C   0  0  0  0  0  0  0  0  0  0  0  0
    3.6249   -0.5645   -1.0198 C   0  0  0  0  0  0  0  0  0  0  0  0
    3.0232   -0.1968    0.2144 O   0  0  0  0  0  0  0  0  0  0  0  0
    2.8208    1.3659    0.5629 P   0  0  0  0  0  0  0  0  0  0  0  0
    4.0400    2.1106    1.6356 C   0  0  0  0  0  0  0  0  0  0  0  0
    1.6809    2.1904    0.0349 O   0  0  0  0  0  0  0  0  0  0  0  0
    1.5239    0.7782    2.4450 S   0  0  0  0  0  0  0  0  0  0  0  0
    0.2371    2.0610    2.4964 C   0  0  0  0  0  0  0  0  0  0  0  0
   -0.9692    1.6519    1.6344 C   0  0  0  0  0  0  0  0  0  0  0  0
   -2.1109    2.6807    1.7222 N   0  0  0  0  0  0  0  0  0  0  0  0
   -2.0273    3.9117    0.7923 C   0  0  0  0  0  0  0  0  0  0  0  0
   -1.3540    5.0688    1.5297 C   0  0  0  0  0  0  0  0  0  0  0  0
   -1.3631    3.6326   -0.5482 C   0  0  0  0  0  0  0  0  0  0  0  0
   -3.5209    2.0617    1.7330 C   0  0  0  0  0  0  0  0  0  0  0  0
   -3.7542    1.3206    3.0506 C   0  0  0  0  0  0  0  0  0  0  0  0
   -3.7698    1.1744    0.5192 C   0  0  0  0  0  0  0  0  0  0  0  0
    1.9427    0.0664   -2.2407 H   0  0  0  0  0  0  0  0  0  0  0  0
    1.8869   -1.6208   -1.7478 H   0  0  0  0  0  0  0  0  0  0  0  0
    3.0176   -1.1164   -3.0222 H   0  0  0  0  0  0  0  0  0  0  0  0
    4.1916   -1.4802   -0.8489 H   0  0  0  0  0  0  0  0  0  0  0  0
    4.3294    0.2037   -1.3471 H   0  0  0  0  0  0  0  0  0  0  0  0
    4.4385    1.3756    2.3414 H   0  0  0  0  0  0  0  0  0  0  0  0
    3.5819    2.9242    2.2176 H   0  0  0  0  0  0  0  0  0  0  0  0
    4.8747    2.5349    1.0702 H   0  0  0  0  0  0  0  0  0  0  0  0
   -0.0678    2.1743    3.5484 H   0  0  0  0  0  0  0  0  0  0  0  0
    0.6763    3.0049    2.1709 H   0  0  0  0  0  0  0  0  0  0  0  0
   -1.3662    0.7087    2.0333 H   0  0  0  0  0  0  0  0  0  0  0  0
   -0.7289    1.4810    0.5786 H   0  0  0  0  0  0  0  0  0  0  0  0
   -2.0351    3.0761    2.6663 H   0  0  0  0  0  0  0  0  0  0  0  0
   -3.0597    4.2205    0.5959 H   0  0  0  0  0  0  0  0  0  0  0  0
   -0.3036    4.8717    1.7500 H   0  0  0  0  0  0  0  0  0  0  0  0
   -1.3951    5.9819    0.9222 H   0  0  0  0  0  0  0  0  0  0  0  0
   -1.8636    5.2817    2.4776 H   0  0  0  0  0  0  0  0  0  0  0  0
   -1.7929    2.7667   -1.0572 H   0  0  0  0  0  0  0  0  0  0  0  0
   -1.4863    4.4964   -1.2148 H   0  0  0  0  0  0  0  0  0  0  0  0
   -0.2865    3.4793   -0.4469 H   0  0  0  0  0  0  0  0  0  0  0  0
   -4.2186    2.9060    1.7144 H   0  0  0  0  0  0  0  0  0  0  0  0
   -4.8201    1.1080    3.1750 H   0  0  0  0  0  0  0  0  0  0  0  0
   -3.2289    0.3611    3.0911 H   0  0  0  0  0  0  0  0  0  0  0  0
   -3.4330    1.9226    3.9077 H   0  0  0  0  0  0  0  0  0  0  0  0
   -3.0982    0.3123    0.4977 H   0  0  0  0  0  0  0  0  0  0  0  0
   -3.6554    1.7267   -0.4158 H   0  0  0  0  0  0  0  0  0  0  0  0
   -4.7966    0.7838    0.5397 H   0  0  0  0  0  0  0  0  0  0  0  0
    3.8649    1.8390   -0.9523 O   0  0  0  0  0  0  0  0  0  0  0  0
    4.7355    2.2335   -0.6943 H   0  0  0  0  0  0  0  0  0  0  0  0
  1  2  1  0
  2  3  1  0
  4  3  1  1
  4  5  1  0
  4  6  2  0
  7  8  1  0
  8  9  1  0
  9 10  1  0
 10 11  1  0
 11 12  1  0
 11 13  1  0
 10 14  1  0
 14 15  1  0
 14 16  1  0
  1 17  1  0
  1 18  1  0
  1 19  1  0
  2 20  1  0
  2 21  1  0
  5 22  1  0
  5 23  1  0
  5 24  1  0
  8 25  1  0
  8 26  1  0
  9 27  1  0
  9 28  1  0
 10 29  1  0
 11 30  1  0
 12 31  1  0
 12 32  1  0
 12 33  1  0
 13 34  1  0
 13 35  1  0
 13 36  1  0
 14 37  1  0
 15 38  1  0
 15 39  1  0
 15 40  1  0
 16 41  1  0
 16 42  1  0
 16 43  1  0
 44 45  1  0
  4 44  1  0
  4  7  1  0
M  CHG  1  10   1
M  END
$$$$
