VX
     RDKit          3D

 45 44  0  0  0  0  0  0  0  0999 V2000
    2.6062    1.6271    2.7237 C   0  0  0  0  0  0  0  0  0  0  0  0
    2.2648    1.2031    1.3107 C   0  0  0  0  0  0  0  0  0  0  0  0
    3.0129    0.0425    0.9901 O   0  0  0  0  0  0  0  0  0  0  0  0
    2.6755   -0.7213   -0.3889 P   0  0  0  0  0  0  0  0  0  0  0  0
    3.5481   -2.2538   -0.6598 C   0  0  0  0  0  0  0  0  0  0  0  0
    1.6977   -0.2208   -1.4166 O   0  0  0  0  0  0  0  0  0  0  0  0
    0.9388   -1.9007    0.6891 S   0  0  0  0  0  0  0  0  0  0  0  0
   -0.2574   -2.2335   -0.6326 C   0  0  0  0  0  0  0  0  0  0  0  0
   -1.1246   -1.0025   -0.9287 C   0  0  0  0  0  0  0  0  0  0  0  0
   -2.2254   -1.3512   -1.9592 N   0  0  0  0  0  0  0  0  0  0  0  0
   -3.6334   -1.3631   -1.3207 C   0  0  0  0  0  0  0  0  0  0  0  0
   -4.7125   -1.6601   -2.3634 C   0  0  0  0  0  0  0  0  0  0  0  0
   -3.6934   -2.4441   -0.2361 C   0  0  0  0  0  0  0  0  0  0  0  0
   -2.1050   -0.5447   -3.2668 C   0  0  0  0  0  0  0  0  0  0  0  0
   -2.3245    0.9476   -3.0409 C   0  0  0  0  0  0  0  0  0  0  0  0
   -0.7745   -0.8483   -3.9549 C   0  0  0  0  0  0  0  0  0  0  0  0
    3.6779    1.8315    2.8169 H   0  0  0  0  0  0  0  0  0  0  0  0
    2.0496    2.5246    3.0073 H   0  0  0  0  0  0  0  0  0  0  0  0
    2.3720    0.8268    3.4334 H   0  0  0  0  0  0  0  0  0  0  0  0
    2.5196    2.0002    0.6055 H   0  0  0  0  0  0  0  0  0  0  0  0
    1.1949    0.9860    1.2298 H   0  0  0  0  0  0  0  0  0  0  0  0
    2.9555   -2.9283   -1.2842 H   0  0  0  0  0  0  0  0  0  0  0  0
    3.7558   -2.7554    0.2895 H   0  0  0  0  0  0  0  0  0  0  0  0
    4.5001   -2.0660   -1.1643 H   0  0  0  0  0  0  0  0  0  0  0  0
    0.2800   -2.5553   -1.5303 H   0  0  0  0  0  0  0  0  0  0  0  0
   -0.8805   -3.0716   -0.3074 H   0  0  0  0  0  0  0  0  0  0  0  0
   -1.6218   -0.6247   -0.0290 H   0  0  0  0  0  0  0  0  0  0  0  0
   -0.5330   -0.1796   -1.3265 H   0  0  0  0  0  0  0  0  0  0  0  0
   -2.0661   -2.3232   -2.2545 H   0  0  0  0  0  0  0  0  0  0  0  0
   -3.7954   -0.3738   -0.8789 H   0  0  0  0  0  0  0  0  0  0  0  0
   -4.4776   -2.5605   -2.9411 H   0  0  0  0  0  0  0  0  0  0  0  0
   -4.8482   -0.8242   -3.0561 H   0  0  0  0  0  0  0  0  0  0  0  0
   -5.6834   -1.8171   -1.8800 H   0  0  0  0  0  0  0  0  0  0  0  0
   -3.4351   -3.4293   -0.6396 H   0  0  0  0  0  0  0  0  0  0  0  0
   -3.0217   -2.2301    0.5998 H   0  0  0  0  0  0  0  0  0  0  0  0
   -4.7031   -2.5100    0.1845 H   0  0  0  0  0  0  0  0  0  0  0  0
   -2.8827   -0.9293   -3.9329 H   0  0  0  0  0  0  0  0  0  0  0  0
   -3.2978    1.1498   -2.5847 H   0  0  0  0  0  0  0  0  0  0  0  0
   -2.3017    1.4776   -3.9998 H   0  0  0  0  0  0  0  0  0  0  0  0
   -1.5538    1.3958   -2.4076 H   0  0  0  0  0  0  0  0  0  0  0  0
   -0.7720   -0.4277   -4.9666 H   0  0  0  0  0  0  0  0  0  0  0  0
    0.0793   -0.4165   -3.4280 H   0  0  0  0  0  0  0  0  0  0  0  0
   -0.6138   -1.9276   -4.0462 H   0  0  0  0  0  0  0  0  0  0  0  0
    4.0737    0.2283   -1.2568 O   0  0  0  0  0  0  0  0  0  0  0  0
    4.6935    0.6492   -0.6097 H   0  0  0  0  0  0  0  0  0  0  0  0
  1  2  1  0
  2  3  1  0
  4  3  1  1
  4  5  1  0
  4  6  2  0
  7  8  1  0
  8  9  1  0
  9 10  1  0
 10 11  1  0
 11 12  1  0
 11 13  1  0
 10 14  1  0
 14 15  1  0
 14 16  1  0
  1 17  1  0
  1 18  1  0
  1 19  1  0
  2 20  1  0
  2 21  1  0
  5 22  1  0
  5 23  1  0
  5 24  1  0
  8 25  1  0
  8 26  1  0
  9 27  1  0
  9 28  1  0
 10 29  1  0
 11 30  1  0
 12 31  1  0
 12 32  1  0
 12 33  1  0
 13 34  1  0
 13 35  1  0
 13 36  1  0
 14 37  1  0
 15 38  1  0
 15 39  1  0
 15 40  1  0
 16 41  1  0
 16 42  1  0
 16 43  1  0
 44 45  1  0
  4 44  1  0
  4  7  1  0
M  CHG  1  10   1
M  END
$$$$
