VX
     RDKit          3D

 45 44  0  0  0  0  0  0  0  0999 V2000
    2.9202    2.4352    1.0424 C   0  0  0  0  0  0  0  0  0  0  0  0
    2.2098    1.1418    1.3846 C   0  0  0  0  0  0  0  0  0  0  0  0
    3.0126    0.0427    0.9899 O   0  0  0  0  0  0  0  0  0  0  0  0
    2.6763   -0.7219   -0.3883 P   0  0  0  0  0  0  0  0  0  0  0  0
    3.5484   -2.2542   -0.6598 C   0  0  0  0  0  0  0  0  0  0  0  0
    1.6970   -0.2201   -1.4170 O   0  0  0  0  0  0  0  0  0  0  0  0
    0.9396   -1.9013    0.6898 S   0  0  0  0  0  0  0  0  0  0  0  0
   -0.3494   -1.9771   -0.5860 C   0  0  0  0  0  0  0  0  0  0  0  0
   -1.0991   -0.6392   -0.6839 C   0  0  0  0  0  0  0  0  0  0  0  0
   -1.9188   -0.5429   -1.9760 N   0  0  0  0  0  0  0  0  0  0  0  0
   -1.0439   -0.2465   -3.2128 C   0  0  0  0  0  0  0  0  0  0  0  0
   -1.7309   -0.8003   -4.4617 C   0  0  0  0  0  0  0  0  0  0  0  0
   -0.7011    1.2295   -3.3596 C   0  0  0  0  0  0  0  0  0  0  0  0
   -3.2073    0.2887   -1.8581 C   0  0  0  0  0  0  0  0  0  0  0  0
   -4.3130   -0.6082   -1.2992 C   0  0  0  0  0  0  0  0  0  0  0  0
   -3.0374    1.5462   -1.0069 C   0  0  0  0  0  0  0  0  0  0  0  0
    3.0938    2.5112   -0.0357 H   0  0  0  0  0  0  0  0  0  0  0  0
    2.3327    3.2992    1.3651 H   0  0  0  0  0  0  0  0  0  0  0  0
    3.9018    2.4750    1.5258 H   0  0  0  0  0  0  0  0  0  0  0  0
    2.0554    1.0739    2.4657 H   0  0  0  0  0  0  0  0  0  0  0  0
    1.2274    1.0987    0.9031 H   0  0  0  0  0  0  0  0  0  0  0  0
    4.4994   -2.0666   -1.1662 H   0  0  0  0  0  0  0  0  0  0  0  0
    2.9548   -2.9290   -1.2830 H   0  0  0  0  0  0  0  0  0  0  0  0
    3.7579   -2.7555    0.2892 H   0  0  0  0  0  0  0  0  0  0  0  0
    0.1210   -2.2696   -1.5277 H   0  0  0  0  0  0  0  0  0  0  0  0
   -1.0542   -2.7719   -0.3193 H   0  0  0  0  0  0  0  0  0  0  0  0
   -1.8037   -0.5892    0.1525 H   0  0  0  0  0  0  0  0  0  0  0  0
   -0.4552    0.2425   -0.6464 H   0  0  0  0  0  0  0  0  0  0  0  0
   -2.2512   -1.5013   -2.1402 H   0  0  0  0  0  0  0  0  0  0  0  0
   -0.1185   -0.8123   -3.0780 H   0  0  0  0  0  0  0  0  0  0  0  0
   -1.0653   -0.7143   -5.3277 H   0  0  0  0  0  0  0  0  0  0  0  0
   -1.9761   -1.8607   -4.3396 H   0  0  0  0  0  0  0  0  0  0  0  0
   -2.6521   -0.2629   -4.7047 H   0  0  0  0  0  0  0  0  0  0  0  0
    0.0028    1.3681   -4.1881 H   0  0  0  0  0  0  0  0  0  0  0  0
   -1.5821    1.8376   -3.5865 H   0  0  0  0  0  0  0  0  0  0  0  0
   -0.2211    1.6279   -2.4616 H   0  0  0  0  0  0  0  0  0  0  0  0
   -3.4936    0.5792   -2.8730 H   0  0  0  0  0  0  0  0  0  0  0  0
   -4.0791   -0.9660   -0.2914 H   0  0  0  0  0  0  0  0  0  0  0  0
   -4.4717   -1.4816   -1.9410 H   0  0  0  0  0  0  0  0  0  0  0  0
   -5.2604   -0.0607   -1.2480 H   0  0  0  0  0  0  0  0  0  0  0  0
   -3.9356    2.1693   -1.0867 H   0  0  0  0  0  0  0  0  0  0  0  0
   -2.9087    1.3165    0.0554 H   0  0  0  0  0  0  0  0  0  0  0  0
   -2.1918    2.1591   -1.3245 H   0  0  0  0  0  0  0  0  0  0  0  0
    4.0745    0.2276   -1.2563 O   0  0  0  0  0  0  0  0  0  0  0  0
    4.6943    0.6486   -0.6092 H   0  0  0  0  0  0  0  0  0  0  0  0
  1  2  1  0
  2  3  1  0
  4  3  1  1
  4  5  1  0
  4  6  2  0
  7  8  1  0
  8  9  1  0
  9 10  1  0
 10 11  1  0
 11 12  1  0
 11 13  1  0
 10 14  1  0
 14 15  1  0
 14 16  1  0
  1 17  1  0
  1 18  1  0
  1 19  1  0
  2 20  1  0
  2 21  1  0
  5 22  1  0
  5 23  1  0
  5 24  1  0
  8 25  1  0
  8 26  1  0
  9 27  1  0
  9 28  1  0
 10 29  1  0
 11 30  1  0
 12 31  1  0
 12 32  1  0
 12 33  1  0
 13 34  1  0
 13 35  1  0
 13 36  1  0
 14 37  1  0
 15 38  1  0
 15 39  1  0
 15 40  1  0
 16 41  1  0
 16 42  1  0
 16 43  1  0
 44 45  1  0
  4 44  1  0
  4  7  1  0
M  CHG  1  10   1
M  END
$$$$
