VX
     RDKit          3D

 45 44  0  0  0  0  0  0  0  0999 V2000
    3.3310   -2.4910    0.7376 C   0  0  0  0  0  0  0  0  0  0  0  0
    3.7558   -1.0640    1.0154 C   0  0  0  0  0  0  0  0  0  0  0  0
    2.9919   -0.1973    0.1927 O   0  0  0  0  0  0  0  0  0  0  0  0
    2.8412    1.3643    0.5765 P   0  0  0  0  0  0  0  0  0  0  0  0
    4.0411    2.1362    1.6443 C   0  0  0  0  0  0  0  0  0  0  0  0
    1.6907    2.1668    0.0343 O   0  0  0  0  0  0  0  0  0  0  0  0
    1.5443    0.7767    2.4586 S   0  0  0  0  0  0  0  0  0  0  0  0
   -0.0097    0.1926    1.7121 C   0  0  0  0  0  0  0  0  0  0  0  0
   -0.9019    1.3694    1.2939 C   0  0  0  0  0  0  0  0  0  0  0  0
   -2.2544    0.9694    0.6720 N   0  0  0  0  0  0  0  0  0  0  0  0
   -3.4056    0.7498    1.6667 C   0  0  0  0  0  0  0  0  0  0  0  0
   -3.1956   -0.4706    2.5489 C   0  0  0  0  0  0  0  0  0  0  0  0
   -3.6663    2.0136    2.4879 C   0  0  0  0  0  0  0  0  0  0  0  0
   -2.1443   -0.0604   -0.4765 C   0  0  0  0  0  0  0  0  0  0  0  0
   -3.5102   -0.3270   -1.1132 C   0  0  0  0  0  0  0  0  0  0  0  0
   -1.1988    0.4695   -1.5594 C   0  0  0  0  0  0  0  0  0  0  0  0
    3.9052   -3.1951    1.3463 H   0  0  0  0  0  0  0  0  0  0  0  0
    2.2657   -2.6241    0.9535 H   0  0  0  0  0  0  0  0  0  0  0  0
    3.4750   -2.7380   -0.3194 H   0  0  0  0  0  0  0  0  0  0  0  0
    4.8157   -0.9346    0.7772 H   0  0  0  0  0  0  0  0  0  0  0  0
    3.5992   -0.8260    2.0714 H   0  0  0  0  0  0  0  0  0  0  0  0
    4.8938    2.4978    1.0627 H   0  0  0  0  0  0  0  0  0  0  0  0
    3.5943    2.9903    2.1613 H   0  0  0  0  0  0  0  0  0  0  0  0
    4.4105    1.4400    2.4022 H   0  0  0  0  0  0  0  0  0  0  0  0
    0.2521   -0.4445    0.8641 H   0  0  0  0  0  0  0  0  0  0  0  0
   -0.4999   -0.4375    2.4539 H   0  0  0  0  0  0  0  0  0  0  0  0
   -0.4273    1.9991    0.5403 H   0  0  0  0  0  0  0  0  0  0  0  0
   -1.1121    2.0215    2.1447 H   0  0  0  0  0  0  0  0  0  0  0  0
   -2.5376    1.8306    0.1827 H   0  0  0  0  0  0  0  0  0  0  0  0
   -4.3026    0.6022    1.0597 H   0  0  0  0  0  0  0  0  0  0  0  0
   -2.4472   -0.2887    3.3251 H   0  0  0  0  0  0  0  0  0  0  0  0
   -2.9026   -1.3524    1.9725 H   0  0  0  0  0  0  0  0  0  0  0  0
   -4.1288   -0.7173    3.0680 H   0  0  0  0  0  0  0  0  0  0  0  0
   -2.9070    2.1766    3.2585 H   0  0  0  0  0  0  0  0  0  0  0  0
   -4.6282    1.9286    3.0063 H   0  0  0  0  0  0  0  0  0  0  0  0
   -3.7134    2.9019    1.8496 H   0  0  0  0  0  0  0  0  0  0  0  0
   -1.7555   -0.9885   -0.0464 H   0  0  0  0  0  0  0  0  0  0  0  0
   -3.4024   -0.9330   -2.0201 H   0  0  0  0  0  0  0  0  0  0  0  0
   -4.0147    0.6043   -1.3919 H   0  0  0  0  0  0  0  0  0  0  0  0
   -4.1629   -0.8956   -0.4437 H   0  0  0  0  0  0  0  0  0  0  0  0
   -1.1816   -0.2079   -2.4207 H   0  0  0  0  0  0  0  0  0  0  0  0
   -1.5124    1.4566   -1.9165 H   0  0  0  0  0  0  0  0  0  0  0  0
   -0.1676    0.5454   -1.2065 H   0  0  0  0  0  0  0  0  0  0  0  0
    3.8853    1.8374   -0.9388 O   0  0  0  0  0  0  0  0  0  0  0  0
    4.7559    2.2318   -0.6807 H   0  0  0  0  0  0  0  0  0  0  0  0
  1  2  1  0
  2  3  1  0
  4  3  1  1
  4  5  1  0
  4  6  2  0
  7  8  1  0
  8  9  1  0
  9 10  1  0
 10 11  1  0
 11 12  1  0
 11 13  1  0
 10 14  1  0
 14 15  1  0
 14 16  1  0
  1 17  1  0
  1 18  1  0
  1 19  1  0
  2 20  1  0
  2 21  1  0
  5 22  1  0
  5 23  1  0
  5 24  1  0
  8 25  1  0
  8 26  1  0
  9 27  1  0
  9 28  1  0
 10 29  1  0
 11 30  1  0
 12 31  1  0
 12 32  1  0
 12 33  1  0
 13 34  1  0
 13 35  1  0
 13 36  1  0
 14 37  1  0
 15 38  1  0
 15 39  1  0
 15 40  1  0
 16 41  1  0
 16 42  1  0
 16 43  1  0
 44 45  1  0
  4 44  1  0
  4  7  1  0
M  CHG  1  10   1
M  END
$$$$
