VX
     RDKit          3D

 45 44  0  0  0  0  0  0  0  0999 V2000
    4.1394   -1.8908   -1.0278 C   0  0  0  0  0  0  0  0  0  0  0  0
    3.4749   -0.5318   -1.1001 C   0  0  0  0  0  0  0  0  0  0  0  0
    2.9935   -0.1972    0.1938 O   0  0  0  0  0  0  0  0  0  0  0  0
    2.8413    1.3646    0.5766 P   0  0  0  0  0  0  0  0  0  0  0  0
    4.0399    2.1344    1.6429 C   0  0  0  0  0  0  0  0  0  0  0  0
    1.6903    2.1683    0.0344 O   0  0  0  0  0  0  0  0  0  0  0  0
    1.5444    0.7769    2.4587 S   0  0  0  0  0  0  0  0  0  0  0  0
   -0.1534    1.0802    1.8959 C   0  0  0  0  0  0  0  0  0  0  0  0
   -0.5160    0.1829    0.7028 C   0  0  0  0  0  0  0  0  0  0  0  0
   -1.8297    0.6414    0.0352 N   0  0  0  0  0  0  0  0  0  0  0  0
   -1.5917    1.8706   -0.8639 C   0  0  0  0  0  0  0  0  0  0  0  0
   -2.7823    2.8241   -0.8044 C   0  0  0  0  0  0  0  0  0  0  0  0
   -1.1845    1.5258   -2.2857 C   0  0  0  0  0  0  0  0  0  0  0  0
   -2.6573   -0.5586   -0.4430 C   0  0  0  0  0  0  0  0  0  0  0  0
   -1.9402   -1.4419   -1.4608 C   0  0  0  0  0  0  0  0  0  0  0  0
   -4.0444   -0.1474   -0.9129 C   0  0  0  0  0  0  0  0  0  0  0  0
    4.4770   -2.2183   -2.0148 H   0  0  0  0  0  0  0  0  0  0  0  0
    5.0039   -1.8564   -0.3546 H   0  0  0  0  0  0  0  0  0  0  0  0
    3.4504   -2.6391   -0.6209 H   0  0  0  0  0  0  0  0  0  0  0  0
    4.1865    0.2192   -1.4555 H   0  0  0  0  0  0  0  0  0  0  0  0
    2.6232   -0.5637   -1.7869 H   0  0  0  0  0  0  0  0  0  0  0  0
    4.8603    2.5667    1.0648 H   0  0  0  0  0  0  0  0  0  0  0  0
    3.5770    2.9389    2.2208 H   0  0  0  0  0  0  0  0  0  0  0  0
    4.4595    1.4087    2.3457 H   0  0  0  0  0  0  0  0  0  0  0  0
   -0.8363    0.8816    2.7285 H   0  0  0  0  0  0  0  0  0  0  0  0
   -0.2406    2.1446    1.6582 H   0  0  0  0  0  0  0  0  0  0  0  0
   -0.6723   -0.8385    1.0672 H   0  0  0  0  0  0  0  0  0  0  0  0
    0.2387    0.1575   -0.0861 H   0  0  0  0  0  0  0  0  0  0  0  0
   -2.3914    1.0063    0.8152 H   0  0  0  0  0  0  0  0  0  0  0  0
   -0.7576    2.4116   -0.4085 H   0  0  0  0  0  0  0  0  0  0  0  0
   -3.0837    3.0235    0.2293 H   0  0  0  0  0  0  0  0  0  0  0  0
   -2.5114    3.7852   -1.2556 H   0  0  0  0  0  0  0  0  0  0  0  0
   -3.6503    2.4550   -1.3533 H   0  0  0  0  0  0  0  0  0  0  0  0
   -0.3579    0.8106   -2.3120 H   0  0  0  0  0  0  0  0  0  0  0  0
   -0.8399    2.4323   -2.7992 H   0  0  0  0  0  0  0  0  0  0  0  0
   -2.0197    1.1346   -2.8722 H   0  0  0  0  0  0  0  0  0  0  0  0
   -2.8019   -1.1563    0.4669 H   0  0  0  0  0  0  0  0  0  0  0  0
   -0.9139   -1.6760   -1.1667 H   0  0  0  0  0  0  0  0  0  0  0  0
   -1.9216   -1.0100   -2.4632 H   0  0  0  0  0  0  0  0  0  0  0  0
   -2.4706   -2.3973   -1.5501 H   0  0  0  0  0  0  0  0  0  0  0  0
   -4.6782   -1.0344   -1.0299 H   0  0  0  0  0  0  0  0  0  0  0  0
   -4.5344    0.5076   -0.1858 H   0  0  0  0  0  0  0  0  0  0  0  0
   -4.0183    0.3513   -1.8863 H   0  0  0  0  0  0  0  0  0  0  0  0
    3.8854    1.8377   -0.9386 O   0  0  0  0  0  0  0  0  0  0  0  0
    4.7560    2.2322   -0.6806 H   0  0  0  0  0  0  0  0  0  0  0  0
  1  2  1  0
  2  3  1  0
  4  3  1  1
  4  5  1  0
  4  6  2  0
  7  8  1  0
  8  9  1  0
  9 10  1  0
 10 11  1  0
 11 12  1  0
 11 13  1  0
 10 14  1  0
 14 15  1  0
 14 16  1  0
  1 17  1  0
  1 18  1  0
  1 19  1  0
  2 20  1  0
  2 21  1  0
  5 22  1  0
  5 23  1  0
  5 24  1  0
  8 25  1  0
  8 26  1  0
  9 27  1  0
  9 28  1  0
 10 29  1  0
 11 30  1  0
 12 31  1  0
 12 32  1  0
 12 33  1  0
 13 34  1  0
 13 35  1  0
 13 36  1  0
 14 37  1  0
 15 38  1  0
 15 39  1  0
 15 40  1  0
 16 41  1  0
 16 42  1  0
 16 43  1  0
 44 45  1  0
  4 44  1  0
  4  7  1  0
M  CHG  1  10   1
M  END
$$$$
