VX
     RDKit          3D

 45 44  0  0  0  0  0  0  0  0999 V2000
    3.6766   -2.0384   -1.1520 C   0  0  0  0  0  0  0  0  0  0  0  0
    3.5158   -0.5344   -1.0751 C   0  0  0  0  0  0  0  0  0  0  0  0
    3.0170   -0.1968    0.2101 O   0  0  0  0  0  0  0  0  0  0  0  0
    2.8255    1.3656    0.5661 P   0  0  0  0  0  0  0  0  0  0  0  0
    4.0398    2.1155    1.6369 C   0  0  0  0  0  0  0  0  0  0  0  0
    1.6827    2.1859    0.0347 O   0  0  0  0  0  0  0  0  0  0  0  0
    1.5286    0.7779    2.4482 S   0  0  0  0  0  0  0  0  0  0  0  0
    0.6403    2.3007    2.8756 C   0  0  0  0  0  0  0  0  0  0  0  0
   -0.8520    2.1614    3.2355 C   0  0  0  0  0  0  0  0  0  0  0  0
   -1.7675    1.4410    2.2202 N   0  0  0  0  0  0  0  0  0  0  0  0
   -1.8500   -0.1079    2.3691 C   0  0  0  0  0  0  0  0  0  0  0  0
   -3.3025   -0.5644    2.1424 C   0  0  0  0  0  0  0  0  0  0  0  0
   -1.4781   -0.6152    3.7697 C   0  0  0  0  0  0  0  0  0  0  0  0
   -1.5429    1.9633    0.7699 C   0  0  0  0  0  0  0  0  0  0  0  0
   -2.4308    1.2792   -0.2642 C   0  0  0  0  0  0  0  0  0  0  0  0
   -1.8276    3.4694    0.7171 C   0  0  0  0  0  0  0  0  0  0  0  0
    4.3675   -2.3921   -0.3794 H   0  0  0  0  0  0  0  0  0  0  0  0
    4.0574   -2.3408   -2.1314 H   0  0  0  0  0  0  0  0  0  0  0  0
    2.7185   -2.5383   -0.9753 H   0  0  0  0  0  0  0  0  0  0  0  0
    2.8095   -0.1924   -1.8379 H   0  0  0  0  0  0  0  0  0  0  0  0
    4.4800   -0.0446   -1.2380 H   0  0  0  0  0  0  0  0  0  0  0  0
    4.4539    1.3771    2.3292 H   0  0  0  0  0  0  0  0  0  0  0  0
    3.5859    2.9196    2.2231 H   0  0  0  0  0  0  0  0  0  0  0  0
    4.8622    2.5429    1.0574 H   0  0  0  0  0  0  0  0  0  0  0  0
    1.1588    2.7432    3.7334 H   0  0  0  0  0  0  0  0  0  0  0  0
    0.7595    3.0196    2.0618 H   0  0  0  0  0  0  0  0  0  0  0  0
   -1.2787    3.1656    3.3468 H   0  0  0  0  0  0  0  0  0  0  0  0
   -0.9878    1.7035    4.2173 H   0  0  0  0  0  0  0  0  0  0  0  0
   -2.7102    1.7638    2.4719 H   0  0  0  0  0  0  0  0  0  0  0  0
   -1.1750   -0.5401    1.6238 H   0  0  0  0  0  0  0  0  0  0  0  0
   -3.3922   -1.6448    2.3071 H   0  0  0  0  0  0  0  0  0  0  0  0
   -3.6721   -0.3857    1.1351 H   0  0  0  0  0  0  0  0  0  0  0  0
   -3.9870   -0.0675    2.8394 H   0  0  0  0  0  0  0  0  0  0  0  0
   -0.4426   -0.4138    4.0444 H   0  0  0  0  0  0  0  0  0  0  0  0
   -1.5931   -1.7048    3.8178 H   0  0  0  0  0  0  0  0  0  0  0  0
   -2.1313   -0.1889    4.5397 H   0  0  0  0  0  0  0  0  0  0  0  0
   -0.5061    1.7522    0.5151 H   0  0  0  0  0  0  0  0  0  0  0  0
   -2.2030    0.2138   -0.3573 H   0  0  0  0  0  0  0  0  0  0  0  0
   -2.2558    1.7110   -1.2570 H   0  0  0  0  0  0  0  0  0  0  0  0
   -3.4932    1.4162   -0.0398 H   0  0  0  0  0  0  0  0  0  0  0  0
   -1.7459    3.8406   -0.3108 H   0  0  0  0  0  0  0  0  0  0  0  0
   -1.1207    4.0531    1.3112 H   0  0  0  0  0  0  0  0  0  0  0  0
   -2.8388    3.6946    1.0738 H   0  0  0  0  0  0  0  0  0  0  0  0
    3.8696    1.8387   -0.9491 O   0  0  0  0  0  0  0  0  0  0  0  0
    4.7402    2.2332   -0.6911 H   0  0  0  0  0  0  0  0  0  0  0  0
  1  2  1  0
  2  3  1  0
  4  3  1  1
  4  5  1  0
  4  6  2  0
  7  8  1  0
  8  9  1  0
  9 10  1  0
 10 11  1  0
 11 12  1  0
 11 13  1  0
 10 14  1  0
 14 15  1  0
 14 16  1  0
  1 17  1  0
  1 18  1  0
  1 19  1  0
  2 20  1  0
  2 21  1  0
  5 22  1  0
  5 23  1  0
  5 24  1  0
  8 25  1  0
  8 26  1  0
  9 27  1  0
  9 28  1  0
 10 29  1  0
 11 30  1  0
 12 31  1  0
 12 32  1  0
 12 33  1  0
 13 34  1  0
 13 35  1  0
 13 36  1  0
 14 37  1  0
 15 38  1  0
 15 39  1  0
 15 40  1  0
 16 41  1  0
 16 42  1  0
 16 43  1  0
 44 45  1  0
  4 44  1  0
  4  7  1  0
M  CHG  1  10   1
M  END
$$$$
