VX
     RDKit          3D

 45 44  0  0  0  0  0  0  0  0999 V2000
    4.2558   -1.8225   -1.0262 C   0  0  0  0  0  0  0  0  0  0  0  0
    3.4739   -0.5265   -1.0983 C   0  0  0  0  0  0  0  0  0  0  0  0
    3.0094   -0.1987    0.2043 O   0  0  0  0  0  0  0  0  0  0  0  0
    2.8295    1.3661    0.5690 P   0  0  0  0  0  0  0  0  0  0  0  0
    4.0399    2.1224    1.6392 C   0  0  0  0  0  0  0  0  0  0  0  0
    1.6860    2.1803    0.0353 O   0  0  0  0  0  0  0  0  0  0  0  0
    1.5326    0.7784    2.4511 S   0  0  0  0  0  0  0  0  0  0  0  0
   -0.1026    0.5611    1.7049 C   0  0  0  0  0  0  0  0  0  0  0  0
   -1.1373    0.1561    2.7537 C   0  0  0  0  0  0  0  0  0  0  0  0
   -2.5310    0.0110    2.0971 N   0  0  0  0  0  0  0  0  0  0  0  0
   -2.9852   -1.4644    2.0085 C   0  0  0  0  0  0  0  0  0  0  0  0
   -4.3701   -1.5744    1.3637 C   0  0  0  0  0  0  0  0  0  0  0  0
   -1.9889   -2.2630    1.1598 C   0  0  0  0  0  0  0  0  0  0  0  0
   -3.5764    0.9841    2.6722 C   0  0  0  0  0  0  0  0  0  0  0  0
   -3.8872    0.6829    4.1352 C   0  0  0  0  0  0  0  0  0  0  0  0
   -3.1343    2.4307    2.4510 C   0  0  0  0  0  0  0  0  0  0  0  0
    4.5786   -2.1341   -2.0250 H   0  0  0  0  0  0  0  0  0  0  0  0
    5.1470   -1.6958   -0.3960 H   0  0  0  0  0  0  0  0  0  0  0  0
    3.6554   -2.6197   -0.5772 H   0  0  0  0  0  0  0  0  0  0  0  0
    4.1107    0.2730   -1.4937 H   0  0  0  0  0  0  0  0  0  0  0  0
    2.6059   -0.6396   -1.7524 H   0  0  0  0  0  0  0  0  0  0  0  0
    4.8760    2.5267    1.0619 H   0  0  0  0  0  0  0  0  0  0  0  0
    4.4373    1.3952    2.3519 H   0  0  0  0  0  0  0  0  0  0  0  0
    3.5869    2.9454    2.2027 H   0  0  0  0  0  0  0  0  0  0  0  0
   -0.0261   -0.1909    0.9148 H   0  0  0  0  0  0  0  0  0  0  0  0
   -0.3973    1.5061    1.2382 H   0  0  0  0  0  0  0  0  0  0  0  0
   -0.8942   -0.7930    3.2429 H   0  0  0  0  0  0  0  0  0  0  0  0
   -1.2003    0.9138    3.5389 H   0  0  0  0  0  0  0  0  0  0  0  0
   -2.4316    0.3086    1.1157 H   0  0  0  0  0  0  0  0  0  0  0  0
   -3.0094   -1.8566    3.0316 H   0  0  0  0  0  0  0  0  0  0  0  0
   -4.6146   -2.6214    1.1519 H   0  0  0  0  0  0  0  0  0  0  0  0
   -5.1567   -1.2048    2.0292 H   0  0  0  0  0  0  0  0  0  0  0  0
   -4.4190   -1.0208    0.4196 H   0  0  0  0  0  0  0  0  0  0  0  0
   -2.3291   -3.2971    1.0448 H   0  0  0  0  0  0  0  0  0  0  0  0
   -0.9996   -2.3162    1.6225 H   0  0  0  0  0  0  0  0  0  0  0  0
   -1.8800   -1.8342    0.1577 H   0  0  0  0  0  0  0  0  0  0  0  0
   -4.4819    0.8490    2.0729 H   0  0  0  0  0  0  0  0  0  0  0  0
   -4.6402    1.3859    4.5067 H   0  0  0  0  0  0  0  0  0  0  0  0
   -3.0078    0.7725    4.7830 H   0  0  0  0  0  0  0  0  0  0  0  0
   -4.2981   -0.3239    4.2580 H   0  0  0  0  0  0  0  0  0  0  0  0
   -2.8802    2.6134    1.4015 H   0  0  0  0  0  0  0  0  0  0  0  0
   -2.2761    2.7147    3.0663 H   0  0  0  0  0  0  0  0  0  0  0  0
   -3.9527    3.1121    2.7097 H   0  0  0  0  0  0  0  0  0  0  0  0
    3.8736    1.8392   -0.9462 O   0  0  0  0  0  0  0  0  0  0  0  0
    4.7442    2.2337   -0.6882 H   0  0  0  0  0  0  0  0  0  0  0  0
  1  2  1  0
  2  3  1  0
  4  3  1  1
  4  5  1  0
  4  6  2  0
  7  8  1  0
  8  9  1  0
  9 10  1  0
 10 11  1  0
 11 12  1  0
 11 13  1  0
 10 14  1  0
 14 15  1  0
 14 16  1  0
  1 17  1  0
  1 18  1  0
  1 19  1  0
  2 20  1  0
  2 21  1  0
  5 22  1  0
  5 23  1  0
  5 24  1  0
  8 25  1  0
  8 26  1  0
  9 27  1  0
  9 28  1  0
 10 29  1  0
 11 30  1  0
 12 31  1  0
 12 32  1  0
 12 33  1  0
 13 34  1  0
 13 35  1  0
 13 36  1  0
 14 37  1  0
 15 38  1  0
 15 39  1  0
 15 40  1  0
 16 41  1  0
 16 42  1  0
 16 43  1  0
 44 45  1  0
  4 44  1  0
  4  7  1  0
M  CHG  1  10   1
M  END
$$$$
