CVX
     RDKit          3D

 45 44  0  0  0  0  0  0  0  0999 V2000
    1.3110    0.5774   -0.7305 O   0  0  0  0  0  0  0  0  0  0  0  0
    1.5275    1.6951    0.2514 P   0  0  0  0  0  0  0  0  0  0  0  0
    1.6335    1.4881    1.8491 O   0  0  0  0  0  0  0  0  0  0  0  0
    1.6535    0.1720    2.3767 C   0  0  0  0  0  0  0  0  0  0  0  0
    3.0872   -0.3201    2.5481 C   0  0  0  0  0  0  0  0  0  0  0  0
    3.8890    0.5580    3.5113 C   0  0  0  0  0  0  0  0  0  0  0  0
    5.3006    0.0256    3.7031 C   0  0  0  0  0  0  0  0  0  0  0  0
   -0.8075    1.9791    0.4431 S   0  0  0  0  0  0  0  0  0  0  0  0
   -1.4528    0.4848   -0.3534 C   0  0  0  0  0  0  0  0  0  0  0  0
   -2.9813    0.4709   -0.3168 C   0  0  0  0  0  0  0  0  0  0  0  0
   -3.5302   -0.7602   -1.0467 N   0  0  0  0  0  0  0  0  0  0  0  0
   -3.4707   -2.0060   -0.1743 C   0  0  0  0  0  0  0  0  0  0  0  0
   -3.3619   -3.2485   -1.0412 C   0  0  0  0  0  0  0  0  0  0  0  0
   -4.9326   -0.5145   -1.5849 C   0  0  0  0  0  0  0  0  0  0  0  0
   -4.8662    0.2536   -2.8938 C   0  0  0  0  0  0  0  0  0  0  0  0
    1.6841    3.3749   -0.3293 C   0  0  0  0  0  0  0  0  0  0  0  0
    1.0863   -0.5054    1.7282 H   0  0  0  0  0  0  0  0  0  0  0  0
    1.1424    0.1943    3.3451 H   0  0  0  0  0  0  0  0  0  0  0  0
    3.0679   -1.3523    2.9168 H   0  0  0  0  0  0  0  0  0  0  0  0
    3.5930   -0.3264    1.5762 H   0  0  0  0  0  0  0  0  0  0  0  0
    3.3849    0.5985    4.4834 H   0  0  0  0  0  0  0  0  0  0  0  0
    3.9440    1.5844    3.1311 H   0  0  0  0  0  0  0  0  0  0  0  0
    5.8604    0.6715    4.3867 H   0  0  0  0  0  0  0  0  0  0  0  0
    5.8391   -0.0097    2.7505 H   0  0  0  0  0  0  0  0  0  0  0  0
    5.2845   -0.9839    4.1258 H   0  0  0  0  0  0  0  0  0  0  0  0
   -1.0345   -0.3856    0.1597 H   0  0  0  0  0  0  0  0  0  0  0  0
   -1.1046    0.4658   -1.3915 H   0  0  0  0  0  0  0  0  0  0  0  0
   -3.3823    0.4470    0.7036 H   0  0  0  0  0  0  0  0  0  0  0  0
   -3.3747    1.3553   -0.8286 H   0  0  0  0  0  0  0  0  0  0  0  0
   -2.9222   -0.9297   -1.8609 H   0  0  0  0  0  0  0  0  0  0  0  0
   -4.3635   -2.0163    0.4601 H   0  0  0  0  0  0  0  0  0  0  0  0
   -2.5862   -1.9329    0.4646 H   0  0  0  0  0  0  0  0  0  0  0  0
   -4.2361   -3.3805   -1.6846 H   0  0  0  0  0  0  0  0  0  0  0  0
   -2.4723   -3.2064   -1.6786 H   0  0  0  0  0  0  0  0  0  0  0  0
   -3.2792   -4.1384   -0.4088 H   0  0  0  0  0  0  0  0  0  0  0  0
   -5.4042   -1.4857   -1.7609 H   0  0  0  0  0  0  0  0  0  0  0  0
   -5.5005    0.0196   -0.8153 H   0  0  0  0  0  0  0  0  0  0  0  0
   -5.8748    0.3887   -3.2971 H   0  0  0  0  0  0  0  0  0  0  0  0
   -4.4246    1.2467   -2.7688 H   0  0  0  0  0  0  0  0  0  0  0  0
   -4.2765   -0.2900   -3.6399 H   0  0  0  0  0  0  0  0  0  0  0  0
    2.7353    3.6210   -0.5054 H   0  0  0  0  0  0  0  0  0  0  0  0
    1.1376    3.5095   -1.2673 H   0  0  0  0  0  0  0  0  0  0  0  0
    1.2857    4.0794    0.4065 H   0  0  0  0  0  0  0  0  0  0  0  0
    3.4074    1.4665    0.0971 O   0  0  0  0  0  0  0  0  0  0  0  0
    3.8483    1.4128    0.9818 H   0  0  0  0  0  0  0  0  0  0  0  0
  1  2  2  0
  2  3  1  6
  3  4  1  0
  4  5  1  0
  5  6  1  0
  6  7  1  0
  8  9  1  0
  9 10  1  0
 10 11  1  0
 11 12  1  0
 12 13  1  0
 11 14  1  0
 14 15  1  0
  2 16  1  0
  4 17  1  0
  4 18  1  0
  5 19  1  0
  5 20  1  0
  6 21  1  0
  6 22  1  0
  7 23  1  0
  7 24  1  0
  7 25  1  0
  9 26  1  0
  9 27  1  0
 10 28  1  0
 10 29  1  0
 11 30  1  0
 12 31  1  0
 12 32  1  0
 13 33  1  0
 13 34  1  0
 13 35  1  0
 14 36  1  0
 14 37  1  0
 15 38  1  0
 15 39  1  0
 15 40  1  0
 16 41  1  0
 16 42  1  0
 16 43  1  0
 44 45  1  0
  2 44  1  0
  2  8  1  0
M  CHG  1  11   1
M  END
$$$$
