VX
     RDKit          3D

 45 44  0  0  0  0  0  0  0  0999 V2000
    3.9879    1.7681    2.3211 C   0  0  0  0  0  0  0  0  0  0  0  0
    3.8462    1.1980    0.9252 C   0  0  0  0  0  0  0  0  0  0  0  0
    2.9933    0.0648    0.9829 O   0  0  0  0  0  0  0  0  0  0  0  0
    2.6877   -0.7342   -0.3835 P   0  0  0  0  0  0  0  0  0  0  0  0
    3.5467   -2.2672   -0.6769 C   0  0  0  0  0  0  0  0  0  0  0  0
    1.7066   -0.2166   -1.3976 O   0  0  0  0  0  0  0  0  0  0  0  0
    0.9509   -1.9137    0.6945 S   0  0  0  0  0  0  0  0  0  0  0  0
   -0.0265   -2.6523   -0.6536 C   0  0  0  0  0  0  0  0  0  0  0  0
   -0.8563   -1.6294   -1.4514 C   0  0  0  0  0  0  0  0  0  0  0  0
   -1.4978   -0.5634   -0.5449 N   0  0  0  0  0  0  0  0  0  0  0  0
   -2.7006   -1.1075    0.2286 C   0  0  0  0  0  0  0  0  0  0  0  0
   -2.7700   -0.5178    1.6355 C   0  0  0  0  0  0  0  0  0  0  0  0
   -4.0158   -0.9810   -0.5212 C   0  0  0  0  0  0  0  0  0  0  0  0
   -1.5138    0.8100   -1.2266 C   0  0  0  0  0  0  0  0  0  0  0  0
   -1.9009    1.9235   -0.2644 C   0  0  0  0  0  0  0  0  0  0  0  0
   -2.3361    0.8443   -2.5119 C   0  0  0  0  0  0  0  0  0  0  0  0
    4.6363    2.6488    2.3190 H   0  0  0  0  0  0  0  0  0  0  0  0
    4.4090    1.0208    3.0020 H   0  0  0  0  0  0  0  0  0  0  0  0
    3.0094    2.0503    2.7242 H   0  0  0  0  0  0  0  0  0  0  0  0
    3.4099    1.9464    0.2562 H   0  0  0  0  0  0  0  0  0  0  0  0
    4.8260    0.9029    0.5388 H   0  0  0  0  0  0  0  0  0  0  0  0
    2.9272   -2.9441   -1.2720 H   0  0  0  0  0  0  0  0  0  0  0  0
    4.4784   -2.0968   -1.2228 H   0  0  0  0  0  0  0  0  0  0  0  0
    3.7873   -2.7641    0.2671 H   0  0  0  0  0  0  0  0  0  0  0  0
    0.6426   -3.1949   -1.3290 H   0  0  0  0  0  0  0  0  0  0  0  0
   -0.6914   -3.3951   -0.2017 H   0  0  0  0  0  0  0  0  0  0  0  0
   -1.6612   -2.1212   -2.0081 H   0  0  0  0  0  0  0  0  0  0  0  0
   -0.2190   -1.1177   -2.1769 H   0  0  0  0  0  0  0  0  0  0  0  0
   -0.7705   -0.4399    0.1783 H   0  0  0  0  0  0  0  0  0  0  0  0
   -2.5024   -2.1771    0.3601 H   0  0  0  0  0  0  0  0  0  0  0  0
   -3.1313    0.5123    1.6463 H   0  0  0  0  0  0  0  0  0  0  0  0
   -3.4688   -1.1001    2.2471 H   0  0  0  0  0  0  0  0  0  0  0  0
   -1.7969   -0.5492    2.1356 H   0  0  0  0  0  0  0  0  0  0  0  0
   -4.7915   -1.5651   -0.0126 H   0  0  0  0  0  0  0  0  0  0  0  0
   -4.3742    0.0513   -0.5512 H   0  0  0  0  0  0  0  0  0  0  0  0
   -3.9399   -1.3670   -1.5420 H   0  0  0  0  0  0  0  0  0  0  0  0
   -0.4679    0.9896   -1.5011 H   0  0  0  0  0  0  0  0  0  0  0  0
   -2.9696    1.9160   -0.0350 H   0  0  0  0  0  0  0  0  0  0  0  0
   -1.6821    2.8990   -0.7138 H   0  0  0  0  0  0  0  0  0  0  0  0
   -1.3321    1.8619    0.6687 H   0  0  0  0  0  0  0  0  0  0  0  0
   -3.4116    0.8707   -2.3269 H   0  0  0  0  0  0  0  0  0  0  0  0
   -2.0990    1.7563   -3.0726 H   0  0  0  0  0  0  0  0  0  0  0  0
   -2.1191   -0.0005   -3.1712 H   0  0  0  0  0  0  0  0  0  0  0  0
    4.0859    0.2154   -1.2514 O   0  0  0  0  0  0  0  0  0  0  0  0
    4.7057    0.6363   -0.6042 H   0  0  0  0  0  0  0  0  0  0  0  0
  1  2  1  0
  2  3  1  0
  4  3  1  1
  4  5  1  0
  4  6  2  0
  7  8  1  0
  8  9  1  0
  9 10  1  0
 10 11  1  0
 11 12  1  0
 11 13  1  0
 10 14  1  0
 14 15  1  0
 14 16  1  0
  1 17  1  0
  1 18  1  0
  1 19  1  0
  2 20  1  0
  2 21  1  0
  5 22  1  0
  5 23  1  0
  5 24  1  0
  8 25  1  0
  8 26  1  0
  9 27  1  0
  9 28  1  0
 10 29  1  0
 11 30  1  0
 12 31  1  0
 12 32  1  0
 12 33  1  0
 13 34  1  0
 13 35  1  0
 13 36  1  0
 14 37  1  0
 15 38  1  0
 15 39  1  0
 15 40  1  0
 16 41  1  0
 16 42  1  0
 16 43  1  0
 44 45  1  0
  4 44  1  0
  4  7  1  0
M  CHG  1  10   1
M  END
$$$$
