VX
     RDKit          3D

 45 44  0  0  0  0  0  0  0  0999 V2000
    3.3528   -2.5258    0.7198 C   0  0  0  0  0  0  0  0  0  0  0  0
    3.6693   -1.0831    1.0950 C   0  0  0  0  0  0  0  0  0  0  0  0
    3.0026   -0.2033    0.1982 O   0  0  0  0  0  0  0  0  0  0  0  0
    2.8353    1.3651    0.5726 P   0  0  0  0  0  0  0  0  0  0  0  0
    4.0440    2.1304    1.6445 C   0  0  0  0  0  0  0  0  0  0  0  0
    1.6831    2.1780    0.0325 O   0  0  0  0  0  0  0  0  0  0  0  0
    1.5384    0.7774    2.4547 S   0  0  0  0  0  0  0  0  0  0  0  0
   -0.0488    0.3226    1.6779 C   0  0  0  0  0  0  0  0  0  0  0  0
   -1.1469    1.2432    2.2204 C   0  0  0  0  0  0  0  0  0  0  0  0
   -2.5120    1.1146    1.5373 N   0  0  0  0  0  0  0  0  0  0  0  0
   -3.4801    0.0465    2.0650 C   0  0  0  0  0  0  0  0  0  0  0  0
   -2.8387   -1.3344    2.2016 C   0  0  0  0  0  0  0  0  0  0  0  0
   -4.0665    0.5078    3.4067 C   0  0  0  0  0  0  0  0  0  0  0  0
   -2.4822    1.3649    0.0192 C   0  0  0  0  0  0  0  0  0  0  0  0
   -3.7084    2.1993   -0.3744 C   0  0  0  0  0  0  0  0  0  0  0  0
   -2.4121    0.0787   -0.7980 C   0  0  0  0  0  0  0  0  0  0  0  0
    2.2699   -2.7047    0.6909 H   0  0  0  0  0  0  0  0  0  0  0  0
    3.8118   -3.2240    1.4311 H   0  0  0  0  0  0  0  0  0  0  0  0
    3.7490   -2.7369   -0.2841 H   0  0  0  0  0  0  0  0  0  0  0  0
    3.3610   -0.8758    2.1200 H   0  0  0  0  0  0  0  0  0  0  0  0
    4.7491   -0.9097    1.0230 H   0  0  0  0  0  0  0  0  0  0  0  0
    4.3755    1.4373    2.4285 H   0  0  0  0  0  0  0  0  0  0  0  0
    3.6161    3.0134    2.1300 H   0  0  0  0  0  0  0  0  0  0  0  0
    4.9218    2.4522    1.0708 H   0  0  0  0  0  0  0  0  0  0  0  0
   -0.2350   -0.7356    1.8970 H   0  0  0  0  0  0  0  0  0  0  0  0
    0.0611    0.4307    0.5937 H   0  0  0  0  0  0  0  0  0  0  0  0
   -0.8654    2.2988    2.0900 H   0  0  0  0  0  0  0  0  0  0  0  0
   -1.3091    1.0765    3.2933 H   0  0  0  0  0  0  0  0  0  0  0  0
   -2.9569    1.9802    1.8721 H   0  0  0  0  0  0  0  0  0  0  0  0
   -4.3034   -0.0072    1.3454 H   0  0  0  0  0  0  0  0  0  0  0  0
   -2.0826   -1.3576    2.9913 H   0  0  0  0  0  0  0  0  0  0  0  0
   -3.6004   -2.0758    2.4716 H   0  0  0  0  0  0  0  0  0  0  0  0
   -2.3850   -1.6748    1.2653 H   0  0  0  0  0  0  0  0  0  0  0  0
   -4.7940   -0.2244    3.7828 H   0  0  0  0  0  0  0  0  0  0  0  0
   -4.5896    1.4688    3.3109 H   0  0  0  0  0  0  0  0  0  0  0  0
   -3.2952    0.6279    4.1726 H   0  0  0  0  0  0  0  0  0  0  0  0
   -1.5888    1.9713   -0.1727 H   0  0  0  0  0  0  0  0  0  0  0  0
   -4.6399    1.6277   -0.2839 H   0  0  0  0  0  0  0  0  0  0  0  0
   -3.7967    3.1024    0.2436 H   0  0  0  0  0  0  0  0  0  0  0  0
   -3.6221    2.5258   -1.4195 H   0  0  0  0  0  0  0  0  0  0  0  0
   -3.3257   -0.5192   -0.7054 H   0  0  0  0  0  0  0  0  0  0  0  0
   -2.2970    0.3291   -1.8617 H   0  0  0  0  0  0  0  0  0  0  0  0
   -1.5595   -0.5505   -0.5223 H   0  0  0  0  0  0  0  0  0  0  0  0
    3.8794    1.8382   -0.9426 O   0  0  0  0  0  0  0  0  0  0  0  0
    4.7500    2.2327   -0.6846 H   0  0  0  0  0  0  0  0  0  0  0  0
  1  2  1  0
  2  3  1  0
  4  3  1  1
  4  5  1  0
  4  6  2  0
  7  8  1  0
  8  9  1  0
  9 10  1  0
 10 11  1  0
 11 12  1  0
 11 13  1  0
 10 14  1  0
 14 15  1  0
 14 16  1  0
  1 17  1  0
  1 18  1  0
  1 19  1  0
  2 20  1  0
  2 21  1  0
  5 22  1  0
  5 23  1  0
  5 24  1  0
  8 25  1  0
  8 26  1  0
  9 27  1  0
  9 28  1  0
 10 29  1  0
 11 30  1  0
 12 31  1  0
 12 32  1  0
 12 33  1  0
 13 34  1  0
 13 35  1  0
 13 36  1  0
 14 37  1  0
 15 38  1  0
 15 39  1  0
 15 40  1  0
 16 41  1  0
 16 42  1  0
 16 43  1  0
 44 45  1  0
  4 44  1  0
  4  7  1  0
M  CHG  1  10   1
M  END
$$$$
