VX
     RDKit          3D

 45 44  0  0  0  0  0  0  0  0999 V2000
    3.8074   -2.0178   -1.1115 C   0  0  0  0  0  0  0  0  0  0  0  0
    3.4964   -0.5352   -1.0833 C   0  0  0  0  0  0  0  0  0  0  0  0
    3.0151   -0.1974    0.2086 O   0  0  0  0  0  0  0  0  0  0  0  0
    2.8264    1.3654    0.5666 P   0  0  0  0  0  0  0  0  0  0  0  0
    4.0406    2.1174    1.6381 C   0  0  0  0  0  0  0  0  0  0  0  0
    1.6828    2.1847    0.0344 O   0  0  0  0  0  0  0  0  0  0  0  0
    1.5296    0.7777    2.4487 S   0  0  0  0  0  0  0  0  0  0  0  0
    0.0388    1.8048    2.2994 C   0  0  0  0  0  0  0  0  0  0  0  0
   -0.8763    1.3036    1.1754 C   0  0  0  0  0  0  0  0  0  0  0  0
   -2.2540    1.9883    1.1960 N   0  0  0  0  0  0  0  0  0  0  0  0
   -2.3027    3.4802    0.7941 C   0  0  0  0  0  0  0  0  0  0  0  0
   -1.2333    3.8827   -0.2155 C   0  0  0  0  0  0  0  0  0  0  0  0
   -2.2553    4.3445    2.0541 C   0  0  0  0  0  0  0  0  0  0  0  0
   -3.3648    1.1730    0.5016 C   0  0  0  0  0  0  0  0  0  0  0  0
   -3.6921   -0.0785    1.3169 C   0  0  0  0  0  0  0  0  0  0  0  0
   -3.0118    0.8393   -0.9431 C   0  0  0  0  0  0  0  0  0  0  0  0
    2.9091   -2.6026   -0.8867 H   0  0  0  0  0  0  0  0  0  0  0  0
    4.5520   -2.2699   -0.3490 H   0  0  0  0  0  0  0  0  0  0  0  0
    4.1880   -2.3186   -2.0918 H   0  0  0  0  0  0  0  0  0  0  0  0
    4.3972    0.0437   -1.3102 H   0  0  0  0  0  0  0  0  0  0  0  0
    2.7258   -0.2959   -1.8233 H   0  0  0  0  0  0  0  0  0  0  0  0
    4.8520    2.5631    1.0561 H   0  0  0  0  0  0  0  0  0  0  0  0
    3.5761    2.9069    2.2373 H   0  0  0  0  0  0  0  0  0  0  0  0
    4.4708    1.3776    2.3185 H   0  0  0  0  0  0  0  0  0  0  0  0
   -0.4886    1.7634    3.2594 H   0  0  0  0  0  0  0  0  0  0  0  0
    0.3558    2.8366    2.1370 H   0  0  0  0  0  0  0  0  0  0  0  0
   -0.4594    1.4270    0.1742 H   0  0  0  0  0  0  0  0  0  0  0  0
   -1.0611    0.2369    1.3280 H   0  0  0  0  0  0  0  0  0  0  0  0
   -2.5397    1.9712    2.1831 H   0  0  0  0  0  0  0  0  0  0  0  0
   -3.2811    3.6452    0.3286 H   0  0  0  0  0  0  0  0  0  0  0  0
   -1.2257    3.2279   -1.0918 H   0  0  0  0  0  0  0  0  0  0  0  0
   -0.2329    3.8932    0.2235 H   0  0  0  0  0  0  0  0  0  0  0  0
   -1.4262    4.9007   -0.5750 H   0  0  0  0  0  0  0  0  0  0  0  0
   -2.3813    5.4017    1.7935 H   0  0  0  0  0  0  0  0  0  0  0  0
   -1.3068    4.2498    2.5891 H   0  0  0  0  0  0  0  0  0  0  0  0
   -3.0639    4.0787    2.7442 H   0  0  0  0  0  0  0  0  0  0  0  0
   -4.2604    1.8050    0.5215 H   0  0  0  0  0  0  0  0  0  0  0  0
   -2.8968   -0.8285    1.2760 H   0  0  0  0  0  0  0  0  0  0  0  0
   -4.5951   -0.5551    0.9181 H   0  0  0  0  0  0  0  0  0  0  0  0
   -3.8835    0.1681    2.3652 H   0  0  0  0  0  0  0  0  0  0  0  0
   -2.1121    0.2208   -1.0178 H   0  0  0  0  0  0  0  0  0  0  0  0
   -3.8307    0.2792   -1.4086 H   0  0  0  0  0  0  0  0  0  0  0  0
   -2.8647    1.7425   -1.5403 H   0  0  0  0  0  0  0  0  0  0  0  0
    3.8705    1.8386   -0.9487 O   0  0  0  0  0  0  0  0  0  0  0  0
    4.7410    2.2331   -0.6907 H   0  0  0  0  0  0  0  0  0  0  0  0
  1  2  1  0
  2  3  1  0
  4  3  1  1
  4  5  1  0
  4  6  2  0
  7  8  1  0
  8  9  1  0
  9 10  1  0
 10 11  1  0
 11 12  1  0
 11 13  1  0
 10 14  1  0
 14 15  1  0
 14 16  1  0
  1 17  1  0
  1 18  1  0
  1 19  1  0
  2 20  1  0
  2 21  1  0
  5 22  1  0
  5 23  1  0
  5 24  1  0
  8 25  1  0
  8 26  1  0
  9 27  1  0
  9 28  1  0
 10 29  1  0
 11 30  1  0
 12 31  1  0
 12 32  1  0
 12 33  1  0
 13 34  1  0
 13 35  1  0
 13 36  1  0
 14 37  1  0
 15 38  1  0
 15 39  1  0
 15 40  1  0
 16 41  1  0
 16 42  1  0
 16 43  1  0
 44 45  1  0
  4 44  1  0
  4  7  1  0
M  CHG  1  10   1
M  END
$$$$
