VX
     RDKit          3D

 45 44  0  0  0  0  0  0  0  0999 V2000
    4.8383   -1.6978    0.3444 C   0  0  0  0  0  0  0  0  0  0  0  0
    3.6412   -1.1062    1.0589 C   0  0  0  0  0  0  0  0  0  0  0  0
    2.9859   -0.1972    0.1886 O   0  0  0  0  0  0  0  0  0  0  0  0
    2.8451    1.3641    0.5791 P   0  0  0  0  0  0  0  0  0  0  0  0
    4.0412    2.1410    1.6458 C   0  0  0  0  0  0  0  0  0  0  0  0
    1.6927    2.1623    0.0343 O   0  0  0  0  0  0  0  0  0  0  0  0
    1.5482    0.7764    2.4612 S   0  0  0  0  0  0  0  0  0  0  0  0
   -0.1599    1.0144    1.8897 C   0  0  0  0  0  0  0  0  0  0  0  0
   -0.5028    0.1129    0.6955 C   0  0  0  0  0  0  0  0  0  0  0  0
   -1.9936    0.2664    0.3120 N   0  0  0  0  0  0  0  0  0  0  0  0
   -2.8264   -0.9776    0.6947 C   0  0  0  0  0  0  0  0  0  0  0  0
   -4.2893   -0.8141    0.2785 C   0  0  0  0  0  0  0  0  0  0  0  0
   -2.7718   -1.1875    2.2113 C   0  0  0  0  0  0  0  0  0  0  0  0
   -2.1967    0.7692   -1.1313 C   0  0  0  0  0  0  0  0  0  0  0  0
   -1.5770    2.1550   -1.3045 C   0  0  0  0  0  0  0  0  0  0  0  0
   -1.6901   -0.2351   -2.1613 C   0  0  0  0  0  0  0  0  0  0  0  0
    5.5480   -0.9130    0.0631 H   0  0  0  0  0  0  0  0  0  0  0  0
    4.5289   -2.1934   -0.5817 H   0  0  0  0  0  0  0  0  0  0  0  0
    5.3512   -2.4253    0.9795 H   0  0  0  0  0  0  0  0  0  0  0  0
    2.9295   -1.8963    1.3171 H   0  0  0  0  0  0  0  0  0  0  0  0
    3.9515   -0.6185    1.9875 H   0  0  0  0  0  0  0  0  0  0  0  0
    3.5903    2.9950    2.1596 H   0  0  0  0  0  0  0  0  0  0  0  0
    4.4168    1.4528    2.4073 H   0  0  0  0  0  0  0  0  0  0  0  0
    4.8915    2.5059    1.0629 H   0  0  0  0  0  0  0  0  0  0  0  0
   -0.8196    0.8054    2.7364 H   0  0  0  0  0  0  0  0  0  0  0  0
   -0.2987    2.0676    1.6251 H   0  0  0  0  0  0  0  0  0  0  0  0
   -0.3243   -0.9455    0.9137 H   0  0  0  0  0  0  0  0  0  0  0  0
    0.1005    0.3600   -0.1773 H   0  0  0  0  0  0  0  0  0  0  0  0
   -2.3739    1.0278    0.8900 H   0  0  0  0  0  0  0  0  0  0  0  0
   -2.3797   -1.8350    0.1796 H   0  0  0  0  0  0  0  0  0  0  0  0
   -4.9007   -1.6259    0.6888 H   0  0  0  0  0  0  0  0  0  0  0  0
   -4.4094   -0.8616   -0.8079 H   0  0  0  0  0  0  0  0  0  0  0  0
   -4.7068    0.1328    0.6373 H   0  0  0  0  0  0  0  0  0  0  0  0
   -1.7638   -1.4301    2.5588 H   0  0  0  0  0  0  0  0  0  0  0  0
   -3.1175   -0.2988    2.7505 H   0  0  0  0  0  0  0  0  0  0  0  0
   -3.4122   -2.0265    2.5060 H   0  0  0  0  0  0  0  0  0  0  0  0
   -3.2748    0.9051   -1.2559 H   0  0  0  0  0  0  0  0  0  0  0  0
   -1.9073    2.5959   -2.2518 H   0  0  0  0  0  0  0  0  0  0  0  0
   -0.4857    2.1251   -1.3328 H   0  0  0  0  0  0  0  0  0  0  0  0
   -1.8853    2.8317   -0.5008 H   0  0  0  0  0  0  0  0  0  0  0  0
   -1.9037    0.1271   -3.1731 H   0  0  0  0  0  0  0  0  0  0  0  0
   -0.6099   -0.3946   -2.0973 H   0  0  0  0  0  0  0  0  0  0  0  0
   -2.1829   -1.2060   -2.0564 H   0  0  0  0  0  0  0  0  0  0  0  0
    3.8892    1.8372   -0.9361 O   0  0  0  0  0  0  0  0  0  0  0  0
    4.7598    2.2317   -0.6781 H   0  0  0  0  0  0  0  0  0  0  0  0
  1  2  1  0
  2  3  1  0
  4  3  1  1
  4  5  1  0
  4  6  2  0
  7  8  1  0
  8  9  1  0
  9 10  1  0
 10 11  1  0
 11 12  1  0
 11 13  1  0
 10 14  1  0
 14 15  1  0
 14 16  1  0
  1 17  1  0
  1 18  1  0
  1 19  1  0
  2 20  1  0
  2 21  1  0
  5 22  1  0
  5 23  1  0
  5 24  1  0
  8 25  1  0
  8 26  1  0
  9 27  1  0
  9 28  1  0
 10 29  1  0
 11 30  1  0
 12 31  1  0
 12 32  1  0
 12 33  1  0
 13 34  1  0
 13 35  1  0
 13 36  1  0
 14 37  1  0
 15 38  1  0
 15 39  1  0
 15 40  1  0
 16 41  1  0
 16 42  1  0
 16 43  1  0
 44 45  1  0
  4 44  1  0
  4  7  1  0
M  CHG  1  10   1
M  END
$$$$
