VX
     RDKit          3D

 45 44  0  0  0  0  0  0  0  0999 V2000
    3.0338    2.4552    1.1024 C   0  0  0  0  0  0  0  0  0  0  0  0
    3.8566    1.1943    0.9345 C   0  0  0  0  0  0  0  0  0  0  0  0
    2.9926    0.0679    0.9852 O   0  0  0  0  0  0  0  0  0  0  0  0
    2.6878   -0.7352   -0.3843 P   0  0  0  0  0  0  0  0  0  0  0  0
    3.5466   -2.2690   -0.6789 C   0  0  0  0  0  0  0  0  0  0  0  0
    1.7071   -0.2170   -1.3972 O   0  0  0  0  0  0  0  0  0  0  0  0
    0.9511   -1.9146    0.6938 S   0  0  0  0  0  0  0  0  0  0  0  0
   -0.3907   -0.6997    0.6506 C   0  0  0  0  0  0  0  0  0  0  0  0
   -1.6363   -1.2409    1.3473 C   0  0  0  0  0  0  0  0  0  0  0  0
   -2.7911   -0.2045    1.2422 N   0  0  0  0  0  0  0  0  0  0  0  0
   -3.0619    0.3912    2.6340 C   0  0  0  0  0  0  0  0  0  0  0  0
   -3.9416   -0.5172    3.4831 C   0  0  0  0  0  0  0  0  0  0  0  0
   -3.5658    1.8290    2.5463 C   0  0  0  0  0  0  0  0  0  0  0  0
   -3.9691   -0.7529    0.4109 C   0  0  0  0  0  0  0  0  0  0  0  0
   -5.1126    0.2517    0.2987 C   0  0  0  0  0  0  0  0  0  0  0  0
   -3.4819   -1.0597   -1.0146 C   0  0  0  0  0  0  0  0  0  0  0  0
    2.2925    2.5435    0.3021 H   0  0  0  0  0  0  0  0  0  0  0  0
    2.4804    2.4314    2.0470 H   0  0  0  0  0  0  0  0  0  0  0  0
    3.6726    3.3423    1.0893 H   0  0  0  0  0  0  0  0  0  0  0  0
    4.5775    1.1019    1.7530 H   0  0  0  0  0  0  0  0  0  0  0  0
    4.4149    1.2224   -0.0066 H   0  0  0  0  0  0  0  0  0  0  0  0
    3.7566   -2.7825    0.2643 H   0  0  0  0  0  0  0  0  0  0  0  0
    2.9411   -2.9319   -1.3033 H   0  0  0  0  0  0  0  0  0  0  0  0
    4.4960   -2.0942   -1.1920 H   0  0  0  0  0  0  0  0  0  0  0  0
   -0.0498    0.2177    1.1408 H   0  0  0  0  0  0  0  0  0  0  0  0
   -0.6104   -0.4634   -0.3945 H   0  0  0  0  0  0  0  0  0  0  0  0
   -1.9845   -2.1848    0.9176 H   0  0  0  0  0  0  0  0  0  0  0  0
   -1.4391   -1.4312    2.4086 H   0  0  0  0  0  0  0  0  0  0  0  0
   -2.4268    0.5807    0.6856 H   0  0  0  0  0  0  0  0  0  0  0  0
   -2.0752    0.4618    3.1095 H   0  0  0  0  0  0  0  0  0  0  0  0
   -4.9658   -0.5798    3.1073 H   0  0  0  0  0  0  0  0  0  0  0  0
   -3.5389   -1.5339    3.5349 H   0  0  0  0  0  0  0  0  0  0  0  0
   -3.9967   -0.1337    4.5077 H   0  0  0  0  0  0  0  0  0  0  0  0
   -4.6306    1.8996    2.3163 H   0  0  0  0  0  0  0  0  0  0  0  0
   -3.4273    2.3254    3.5145 H   0  0  0  0  0  0  0  0  0  0  0  0
   -3.0072    2.4069    1.8018 H   0  0  0  0  0  0  0  0  0  0  0  0
   -4.3114   -1.6707    0.9023 H   0  0  0  0  0  0  0  0  0  0  0  0
   -4.7593    1.2322   -0.0387 H   0  0  0  0  0  0  0  0  0  0  0  0
   -5.8560   -0.0932   -0.4296 H   0  0  0  0  0  0  0  0  0  0  0  0
   -5.6518    0.3688    1.2403 H   0  0  0  0  0  0  0  0  0  0  0  0
   -3.0659   -0.1656   -1.4930 H   0  0  0  0  0  0  0  0  0  0  0  0
   -2.7206   -1.8432   -1.0440 H   0  0  0  0  0  0  0  0  0  0  0  0
   -4.3143   -1.4148   -1.6336 H   0  0  0  0  0  0  0  0  0  0  0  0
    4.0860    0.2143   -1.2523 O   0  0  0  0  0  0  0  0  0  0  0  0
    4.7058    0.6353   -0.6052 H   0  0  0  0  0  0  0  0  0  0  0  0
  1  2  1  0
  2  3  1  0
  4  3  1  1
  4  5  1  0
  4  6  2  0
  7  8  1  0
  8  9  1  0
  9 10  1  0
 10 11  1  0
 11 12  1  0
 11 13  1  0
 10 14  1  0
 14 15  1  0
 14 16  1  0
  1 17  1  0
  1 18  1  0
  1 19  1  0
  2 20  1  0
  2 21  1  0
  5 22  1  0
  5 23  1  0
  5 24  1  0
  8 25  1  0
  8 26  1  0
  9 27  1  0
  9 28  1  0
 10 29  1  0
 11 30  1  0
 12 31  1  0
 12 32  1  0
 12 33  1  0
 13 34  1  0
 13 35  1  0
 13 36  1  0
 14 37  1  0
 15 38  1  0
 15 39  1  0
 15 40  1  0
 16 41  1  0
 16 42  1  0
 16 43  1  0
 44 45  1  0
  4 44  1  0
  4  7  1  0
M  CHG  1  10   1
M  END
$$$$
