VX
     RDKit          3D

 45 44  0  0  0  0  0  0  0  0999 V2000
    4.1067   -1.9027   -1.0579 C   0  0  0  0  0  0  0  0  0  0  0  0
    3.4818   -0.5223   -1.1075 C   0  0  0  0  0  0  0  0  0  0  0  0
    2.9884   -0.1959    0.1907 O   0  0  0  0  0  0  0  0  0  0  0  0
    2.8451    1.3647    0.5793 P   0  0  0  0  0  0  0  0  0  0  0  0
    4.0377    2.1374    1.6423 C   0  0  0  0  0  0  0  0  0  0  0  0
    1.6937    2.1638    0.0354 O   0  0  0  0  0  0  0  0  0  0  0  0
    1.5482    0.7771    2.4614 S   0  0  0  0  0  0  0  0  0  0  0  0
    0.2570   -0.3263    1.8000 C   0  0  0  0  0  0  0  0  0  0  0  0
   -0.5929    0.2899    0.6790 C   0  0  0  0  0  0  0  0  0  0  0  0
   -1.1110    1.7059    0.9994 N   0  0  0  0  0  0  0  0  0  0  0  0
   -2.2187    1.8474    2.0611 C   0  0  0  0  0  0  0  0  0  0  0  0
   -1.6248    1.9950    3.4633 C   0  0  0  0  0  0  0  0  0  0  0  0
   -3.2311    0.7106    2.0122 C   0  0  0  0  0  0  0  0  0  0  0  0
   -1.3432    2.5148   -0.2982 C   0  0  0  0  0  0  0  0  0  0  0  0
   -2.6669    2.1596   -0.9601 C   0  0  0  0  0  0  0  0  0  0  0  0
   -1.2139    4.0118   -0.0175 C   0  0  0  0  0  0  0  0  0  0  0  0
    4.9727   -1.9176   -0.3796 H   0  0  0  0  0  0  0  0  0  0  0  0
    3.3966   -2.6416   -0.6655 H   0  0  0  0  0  0  0  0  0  0  0  0
    4.4265   -2.2155   -2.0614 H   0  0  0  0  0  0  0  0  0  0  0  0
    2.6419   -0.5326   -1.8068 H   0  0  0  0  0  0  0  0  0  0  0  0
    4.2137    0.2211   -1.4452 H   0  0  0  0  0  0  0  0  0  0  0  0
    3.5743    2.9091    2.2633 H   0  0  0  0  0  0  0  0  0  0  0  0
    4.4847    1.3787    2.3049 H   0  0  0  0  0  0  0  0  0  0  0  0
    4.8464    2.5936    1.0609 H   0  0  0  0  0  0  0  0  0  0  0  0
    0.7457   -1.2395    1.4304 H   0  0  0  0  0  0  0  0  0  0  0  0
   -0.3754   -0.6409    2.6294 H   0  0  0  0  0  0  0  0  0  0  0  0
    0.0132    0.3625   -0.2267 H   0  0  0  0  0  0  0  0  0  0  0  0
   -1.4470   -0.3448    0.4274 H   0  0  0  0  0  0  0  0  0  0  0  0
   -0.2745    2.1610    1.4048 H   0  0  0  0  0  0  0  0  0  0  0  0
   -2.7401    2.7867    1.8526 H   0  0  0  0  0  0  0  0  0  0  0  0
   -2.4111    2.2952    4.1688 H   0  0  0  0  0  0  0  0  0  0  0  0
   -0.8455    2.7620    3.5017 H   0  0  0  0  0  0  0  0  0  0  0  0
   -1.2061    1.0495    3.8308 H   0  0  0  0  0  0  0  0  0  0  0  0
   -3.6719    0.6050    1.0204 H   0  0  0  0  0  0  0  0  0  0  0  0
   -2.7945   -0.2533    2.2951 H   0  0  0  0  0  0  0  0  0  0  0  0
   -4.0509    0.9101    2.7109 H   0  0  0  0  0  0  0  0  0  0  0  0
   -0.5356    2.2388   -0.9855 H   0  0  0  0  0  0  0  0  0  0  0  0
   -2.7493    2.6440   -1.9342 H   0  0  0  0  0  0  0  0  0  0  0  0
   -2.7486    1.0839   -1.1336 H   0  0  0  0  0  0  0  0  0  0  0  0
   -3.5301    2.4901   -0.3748 H   0  0  0  0  0  0  0  0  0  0  0  0
   -1.2522    4.5679   -0.9584 H   0  0  0  0  0  0  0  0  0  0  0  0
   -2.0204    4.3941    0.6161 H   0  0  0  0  0  0  0  0  0  0  0  0
   -0.2611    4.2354    0.4698 H   0  0  0  0  0  0  0  0  0  0  0  0
    3.8892    1.8378   -0.9360 O   0  0  0  0  0  0  0  0  0  0  0  0
    4.7598    2.2322   -0.6779 H   0  0  0  0  0  0  0  0  0  0  0  0
  1  2  1  0
  2  3  1  0
  4  3  1  1
  4  5  1  0
  4  6  2  0
  7  8  1  0
  8  9  1  0
  9 10  1  0
 10 11  1  0
 11 12  1  0
 11 13  1  0
 10 14  1  0
 14 15  1  0
 14 16  1  0
  1 17  1  0
  1 18  1  0
  1 19  1  0
  2 20  1  0
  2 21  1  0
  5 22  1  0
  5 23  1  0
  5 24  1  0
  8 25  1  0
  8 26  1  0
  9 27  1  0
  9 28  1  0
 10 29  1  0
 11 30  1  0
 12 31  1  0
 12 32  1  0
 12 33  1  0
 13 34  1  0
 13 35  1  0
 13 36  1  0
 14 37  1  0
 15 38  1  0
 15 39  1  0
 15 40  1  0
 16 41  1  0
 16 42  1  0
 16 43  1  0
 44 45  1  0
  4 44  1  0
  4  7  1  0
M  CHG  1  10   1
M  END
$$$$
