VX
     RDKit          3D

 45 44  0  0  0  0  0  0  0  0999 V2000
    2.6122    1.6392    2.7143 C   0  0  0  0  0  0  0  0  0  0  0  0
    2.2835    1.2185    1.2972 C   0  0  0  0  0  0  0  0  0  0  0  0
    3.0130    0.0425    0.9902 O   0  0  0  0  0  0  0  0  0  0  0  0
    2.6755   -0.7212   -0.3889 P   0  0  0  0  0  0  0  0  0  0  0  0
    3.5482   -2.2538   -0.6597 C   0  0  0  0  0  0  0  0  0  0  0  0
    1.6976   -0.2208   -1.4167 O   0  0  0  0  0  0  0  0  0  0  0  0
    0.9387   -1.9007    0.6891 S   0  0  0  0  0  0  0  0  0  0  0  0
   -0.2544   -2.2284   -0.6405 C   0  0  0  0  0  0  0  0  0  0  0  0
   -1.1005   -0.9863   -0.9454 C   0  0  0  0  0  0  0  0  0  0  0  0
   -2.2789   -1.2951   -1.8868 N   0  0  0  0  0  0  0  0  0  0  0  0
   -1.9408   -1.6353   -3.3506 C   0  0  0  0  0  0  0  0  0  0  0  0
   -0.6843   -0.9428   -3.8655 C   0  0  0  0  0  0  0  0  0  0  0  0
   -1.8699   -3.1528   -3.5135 C   0  0  0  0  0  0  0  0  0  0  0  0
   -3.4031   -0.2529   -1.7140 C   0  0  0  0  0  0  0  0  0  0  0  0
   -4.7359   -0.8374   -2.1811 C   0  0  0  0  0  0  0  0  0  0  0  0
   -3.0715    1.0678   -2.3968 C   0  0  0  0  0  0  0  0  0  0  0  0
    2.0765    2.5534    2.9843 H   0  0  0  0  0  0  0  0  0  0  0  0
    2.3411    0.8488    3.4221 H   0  0  0  0  0  0  0  0  0  0  0  0
    3.6878    1.8121    2.8269 H   0  0  0  0  0  0  0  0  0  0  0  0
    2.5645    2.0082    0.5936 H   0  0  0  0  0  0  0  0  0  0  0  0
    1.2109    1.0224    1.2010 H   0  0  0  0  0  0  0  0  0  0  0  0
    4.5005   -2.0656   -1.1633 H   0  0  0  0  0  0  0  0  0  0  0  0
    3.7549   -2.7563    0.2894 H   0  0  0  0  0  0  0  0  0  0  0  0
    2.9560   -2.9278   -1.2852 H   0  0  0  0  0  0  0  0  0  0  0  0
   -0.8989   -3.0499   -0.3115 H   0  0  0  0  0  0  0  0  0  0  0  0
    0.3023   -2.5689   -1.5152 H   0  0  0  0  0  0  0  0  0  0  0  0
   -1.5495   -0.6332   -0.0096 H   0  0  0  0  0  0  0  0  0  0  0  0
   -0.5394   -0.1582   -1.3792 H   0  0  0  0  0  0  0  0  0  0  0  0
   -2.6973   -2.1479   -1.4929 H   0  0  0  0  0  0  0  0  0  0  0  0
   -2.7827   -1.2921   -3.9579 H   0  0  0  0  0  0  0  0  0  0  0  0
   -0.5860   -1.1073   -4.9446 H   0  0  0  0  0  0  0  0  0  0  0  0
    0.2262   -1.3341   -3.4050 H   0  0  0  0  0  0  0  0  0  0  0  0
   -0.7175    0.1386   -3.7075 H   0  0  0  0  0  0  0  0  0  0  0  0
   -1.7330   -3.4145   -4.5686 H   0  0  0  0  0  0  0  0  0  0  0  0
   -1.0411   -3.5958   -2.9568 H   0  0  0  0  0  0  0  0  0  0  0  0
   -2.7979   -3.6274   -3.1760 H   0  0  0  0  0  0  0  0  0  0  0  0
   -3.4908   -0.0843   -0.6341 H   0  0  0  0  0  0  0  0  0  0  0  0
   -4.7800   -0.9746   -3.2652 H   0  0  0  0  0  0  0  0  0  0  0  0
   -4.9314   -1.8044   -1.7056 H   0  0  0  0  0  0  0  0  0  0  0  0
   -5.5562   -0.1642   -1.9082 H   0  0  0  0  0  0  0  0  0  0  0  0
   -3.0334    0.9734   -3.4861 H   0  0  0  0  0  0  0  0  0  0  0  0
   -2.1158    1.4722   -2.0505 H   0  0  0  0  0  0  0  0  0  0  0  0
   -3.8416    1.8122   -2.1657 H   0  0  0  0  0  0  0  0  0  0  0  0
    4.0737    0.2284   -1.2568 O   0  0  0  0  0  0  0  0  0  0  0  0
    4.6935    0.6493   -0.6096 H   0  0  0  0  0  0  0  0  0  0  0  0
  1  2  1  0
  2  3  1  0
  4  3  1  1
  4  5  1  0
  4  6  2  0
  7  8  1  0
  8  9  1  0
  9 10  1  0
 10 11  1  0
 11 12  1  0
 11 13  1  0
 10 14  1  0
 14 15  1  0
 14 16  1  0
  1 17  1  0
  1 18  1  0
  1 19  1  0
  2 20  1  0
  2 21  1  0
  5 22  1  0
  5 23  1  0
  5 24  1  0
  8 25  1  0
  8 26  1  0
  9 27  1  0
  9 28  1  0
 10 29  1  0
 11 30  1  0
 12 31  1  0
 12 32  1  0
 12 33  1  0
 13 34  1  0
 13 35  1  0
 13 36  1  0
 14 37  1  0
 15 38  1  0
 15 39  1  0
 15 40  1  0
 16 41  1  0
 16 42  1  0
 16 43  1  0
 44 45  1  0
  4 44  1  0
  4  7  1  0
M  CHG  1  10   1
M  END
$$$$
