VX
     RDKit          3D

 45 44  0  0  0  0  0  0  0  0999 V2000
    3.0974    0.1938    3.3560 C   0  0  0  0  0  0  0  0  0  0  0  0
    3.5259   -0.5606    2.1142 C   0  0  0  0  0  0  0  0  0  0  0  0
    2.9751    0.0873    0.9783 O   0  0  0  0  0  0  0  0  0  0  0  0
    2.6999   -0.7474   -0.3782 P   0  0  0  0  0  0  0  0  0  0  0  0
    3.5461   -2.2817   -0.6935 C   0  0  0  0  0  0  0  0  0  0  0  0
    1.7130   -0.2116   -1.3818 O   0  0  0  0  0  0  0  0  0  0  0  0
    0.9632   -1.9269    0.6999 S   0  0  0  0  0  0  0  0  0  0  0  0
   -0.5293   -1.0486    0.1483 C   0  0  0  0  0  0  0  0  0  0  0  0
   -0.5087    0.4310    0.5688 C   0  0  0  0  0  0  0  0  0  0  0  0
   -1.6316    1.2268   -0.1404 N   0  0  0  0  0  0  0  0  0  0  0  0
   -2.1722    2.3937    0.7184 C   0  0  0  0  0  0  0  0  0  0  0  0
   -3.3279    3.1093    0.0194 C   0  0  0  0  0  0  0  0  0  0  0  0
   -2.7105    1.8615    2.0554 C   0  0  0  0  0  0  0  0  0  0  0  0
   -1.1593    1.5591   -1.5838 C   0  0  0  0  0  0  0  0  0  0  0  0
   -0.3360    2.8398   -1.6527 C   0  0  0  0  0  0  0  0  0  0  0  0
   -2.3277    1.5176   -2.5641 C   0  0  0  0  0  0  0  0  0  0  0  0
    3.5033   -0.2761    4.2561 H   0  0  0  0  0  0  0  0  0  0  0  0
    3.4397    1.2330    3.3135 H   0  0  0  0  0  0  0  0  0  0  0  0
    2.0050    0.2206    3.4318 H   0  0  0  0  0  0  0  0  0  0  0  0
    4.6166   -0.5572    2.0262 H   0  0  0  0  0  0  0  0  0  0  0  0
    3.1811   -1.5972    2.1706 H   0  0  0  0  0  0  0  0  0  0  0  0
    2.9477   -2.9170   -1.3526 H   0  0  0  0  0  0  0  0  0  0  0  0
    3.7297   -2.8356    0.2307 H   0  0  0  0  0  0  0  0  0  0  0  0
    4.5084   -2.0965   -1.1801 H   0  0  0  0  0  0  0  0  0  0  0  0
   -0.6079   -1.1736   -0.9346 H   0  0  0  0  0  0  0  0  0  0  0  0
   -1.4012   -1.5437    0.5901 H   0  0  0  0  0  0  0  0  0  0  0  0
   -0.6706    0.4762    1.6450 H   0  0  0  0  0  0  0  0  0  0  0  0
    0.4273    0.9521    0.3581 H   0  0  0  0  0  0  0  0  0  0  0  0
   -2.4219    0.5772   -0.2387 H   0  0  0  0  0  0  0  0  0  0  0  0
   -1.3376    3.0803    0.8970 H   0  0  0  0  0  0  0  0  0  0  0  0
   -4.0990    2.4036   -0.3065 H   0  0  0  0  0  0  0  0  0  0  0  0
   -3.8046    3.8291    0.6959 H   0  0  0  0  0  0  0  0  0  0  0  0
   -2.9960    3.6943   -0.8392 H   0  0  0  0  0  0  0  0  0  0  0  0
   -3.2987    2.6284    2.5727 H   0  0  0  0  0  0  0  0  0  0  0  0
   -1.9071    1.5951    2.7470 H   0  0  0  0  0  0  0  0  0  0  0  0
   -3.3542    0.9871    1.9109 H   0  0  0  0  0  0  0  0  0  0  0  0
   -0.5052    0.7349   -1.8802 H   0  0  0  0  0  0  0  0  0  0  0  0
   -0.9281    3.7380   -1.4657 H   0  0  0  0  0  0  0  0  0  0  0  0
    0.1018    2.9474   -2.6519 H   0  0  0  0  0  0  0  0  0  0  0  0
    0.4914    2.8236   -0.9377 H   0  0  0  0  0  0  0  0  0  0  0  0
   -2.9498    0.6302   -2.4052 H   0  0  0  0  0  0  0  0  0  0  0  0
   -2.9649    2.4006   -2.5138 H   0  0  0  0  0  0  0  0  0  0  0  0
   -1.9471    1.4670   -3.5912 H   0  0  0  0  0  0  0  0  0  0  0  0
    4.0981    0.2022   -1.2462 O   0  0  0  0  0  0  0  0  0  0  0  0
    4.7179    0.6231   -0.5990 H   0  0  0  0  0  0  0  0  0  0  0  0
  1  2  1  0
  2  3  1  0
  4  3  1  1
  4  5  1  0
  4  6  2  0
  7  8  1  0
  8  9  1  0
  9 10  1  0
 10 11  1  0
 11 12  1  0
 11 13  1  0
 10 14  1  0
 14 15  1  0
 14 16  1  0
  1 17  1  0
  1 18  1  0
  1 19  1  0
  2 20  1  0
  2 21  1  0
  5 22  1  0
  5 23  1  0
  5 24  1  0
  8 25  1  0
  8 26  1  0
  9 27  1  0
  9 28  1  0
 10 29  1  0
 11 30  1  0
 12 31  1  0
 12 32  1  0
 12 33  1  0
 13 34  1  0
 13 35  1  0
 13 36  1  0
 14 37  1  0
 15 38  1  0
 15 39  1  0
 15 40  1  0
 16 41  1  0
 16 42  1  0
 16 43  1  0
 44 45  1  0
  4 44  1  0
  4  7  1  0
M  CHG  1  10   1
M  END
$$$$
