VX
     RDKit          3D

 45 44  0  0  0  0  0  0  0  0999 V2000
    3.2094    0.2389    3.3442 C   0  0  0  0  0  0  0  0  0  0  0  0
    3.5631   -0.5507    2.1001 C   0  0  0  0  0  0  0  0  0  0  0  0
    2.9746    0.0879    0.9782 O   0  0  0  0  0  0  0  0  0  0  0  0
    2.6995   -0.7473   -0.3788 P   0  0  0  0  0  0  0  0  0  0  0  0
    3.5455   -2.2814   -0.6942 C   0  0  0  0  0  0  0  0  0  0  0  0
    1.7145   -0.2125   -1.3804 O   0  0  0  0  0  0  0  0  0  0  0  0
    0.9628   -1.9268    0.6993 S   0  0  0  0  0  0  0  0  0  0  0  0
   -0.5323   -0.9579    0.3267 C   0  0  0  0  0  0  0  0  0  0  0  0
   -0.3960    0.5086    0.7507 C   0  0  0  0  0  0  0  0  0  0  0  0
   -1.6980    1.3207    0.5801 N   0  0  0  0  0  0  0  0  0  0  0  0
   -2.1792    1.5050   -0.8763 C   0  0  0  0  0  0  0  0  0  0  0  0
   -1.0088    1.8412   -1.8047 C   0  0  0  0  0  0  0  0  0  0  0  0
   -3.1811    2.6595   -0.9586 C   0  0  0  0  0  0  0  0  0  0  0  0
   -2.7399    0.9173    1.6455 C   0  0  0  0  0  0  0  0  0  0  0  0
   -3.2778    2.1638    2.3468 C   0  0  0  0  0  0  0  0  0  0  0  0
   -3.8486    0.0184    1.1077 C   0  0  0  0  0  0  0  0  0  0  0  0
    3.5486    1.2767    3.2561 H   0  0  0  0  0  0  0  0  0  0  0  0
    2.1228    0.2700    3.4819 H   0  0  0  0  0  0  0  0  0  0  0  0
    3.6648   -0.2081    4.2325 H   0  0  0  0  0  0  0  0  0  0  0  0
    4.6482   -0.5732    1.9643 H   0  0  0  0  0  0  0  0  0  0  0  0
    3.1959   -1.5767    2.1945 H   0  0  0  0  0  0  0  0  0  0  0  0
    3.7059   -2.8498    0.2260 H   0  0  0  0  0  0  0  0  0  0  0  0
    4.5179   -2.0928   -1.1572 H   0  0  0  0  0  0  0  0  0  0  0  0
    2.9596   -2.9052   -1.3754 H   0  0  0  0  0  0  0  0  0  0  0  0
   -0.7444   -1.0431   -0.7424 H   0  0  0  0  0  0  0  0  0  0  0  0
   -1.3480   -1.4436    0.8667 H   0  0  0  0  0  0  0  0  0  0  0  0
    0.3778    1.0472    0.2006 H   0  0  0  0  0  0  0  0  0  0  0  0
   -0.1288    0.5910    1.8118 H   0  0  0  0  0  0  0  0  0  0  0  0
   -1.3920    2.2655    0.8497 H   0  0  0  0  0  0  0  0  0  0  0  0
   -2.6384    0.5640   -1.1945 H   0  0  0  0  0  0  0  0  0  0  0  0
   -1.3712    2.1209   -2.8006 H   0  0  0  0  0  0  0  0  0  0  0  0
   -0.3558    0.9796   -1.9536 H   0  0  0  0  0  0  0  0  0  0  0  0
   -0.4125    2.6757   -1.4201 H   0  0  0  0  0  0  0  0  0  0  0  0
   -2.7707    3.5775   -0.5230 H   0  0  0  0  0  0  0  0  0  0  0  0
   -3.4373    2.8731   -2.0028 H   0  0  0  0  0  0  0  0  0  0  0  0
   -4.1234    2.4338   -0.4580 H   0  0  0  0  0  0  0  0  0  0  0  0
   -2.1920    0.3485    2.4062 H   0  0  0  0  0  0  0  0  0  0  0  0
   -2.4601    2.7699    2.7516 H   0  0  0  0  0  0  0  0  0  0  0  0
   -3.8744    2.7965    1.6867 H   0  0  0  0  0  0  0  0  0  0  0  0
   -3.9189    1.8760    3.1876 H   0  0  0  0  0  0  0  0  0  0  0  0
   -4.4409   -0.3762    1.9413 H   0  0  0  0  0  0  0  0  0  0  0  0
   -3.4549   -0.8404    0.5587 H   0  0  0  0  0  0  0  0  0  0  0  0
   -4.5455    0.5482    0.4543 H   0  0  0  0  0  0  0  0  0  0  0  0
    4.0977    0.2023   -1.2468 O   0  0  0  0  0  0  0  0  0  0  0  0
    4.7175    0.6232   -0.5996 H   0  0  0  0  0  0  0  0  0  0  0  0
  1  2  1  0
  2  3  1  0
  4  3  1  1
  4  5  1  0
  4  6  2  0
  7  8  1  0
  8  9  1  0
  9 10  1  0
 10 11  1  0
 11 12  1  0
 11 13  1  0
 10 14  1  0
 14 15  1  0
 14 16  1  0
  1 17  1  0
  1 18  1  0
  1 19  1  0
  2 20  1  0
  2 21  1  0
  5 22  1  0
  5 23  1  0
  5 24  1  0
  8 25  1  0
  8 26  1  0
  9 27  1  0
  9 28  1  0
 10 29  1  0
 11 30  1  0
 12 31  1  0
 12 32  1  0
 12 33  1  0
 13 34  1  0
 13 35  1  0
 13 36  1  0
 14 37  1  0
 15 38  1  0
 15 39  1  0
 15 40  1  0
 16 41  1  0
 16 42  1  0
 16 43  1  0
 44 45  1  0
  4 44  1  0
  4  7  1  0
M  CHG  1  10   1
M  END
$$$$
