VX
     RDKit          3D

 45 44  0  0  0  0  0  0  0  0999 V2000
    3.3250   -2.4860    0.7727 C   0  0  0  0  0  0  0  0  0  0  0  0
    3.7634   -1.0581    1.0242 C   0  0  0  0  0  0  0  0  0  0  0  0
    2.9987   -0.1980    0.1971 O   0  0  0  0  0  0  0  0  0  0  0  0
    2.8365    1.3650    0.5735 P   0  0  0  0  0  0  0  0  0  0  0  0
    4.0410    2.1311    1.6426 C   0  0  0  0  0  0  0  0  0  0  0  0
    1.6888    2.1721    0.0346 O   0  0  0  0  0  0  0  0  0  0  0  0
    1.5396    0.7773    2.4556 S   0  0  0  0  0  0  0  0  0  0  0  0
   -0.1053    0.5899    1.7002 C   0  0  0  0  0  0  0  0  0  0  0  0
   -1.1410    0.2216    2.7559 C   0  0  0  0  0  0  0  0  0  0  0  0
   -2.5374   -0.1224    2.2288 N   0  0  0  0  0  0  0  0  0  0  0  0
   -3.2683    0.8796    1.3253 C   0  0  0  0  0  0  0  0  0  0  0  0
   -2.8481    0.8060   -0.1364 C   0  0  0  0  0  0  0  0  0  0  0  0
   -3.1780    2.2924    1.8969 C   0  0  0  0  0  0  0  0  0  0  0  0
   -2.8048   -1.5973    1.8778 C   0  0  0  0  0  0  0  0  0  0  0  0
   -1.6939   -2.2306    1.0510 C   0  0  0  0  0  0  0  0  0  0  0  0
   -3.0465   -2.3831    3.1688 C   0  0  0  0  0  0  0  0  0  0  0  0
    2.2611   -2.6075    1.0017 H   0  0  0  0  0  0  0  0  0  0  0  0
    3.9003   -3.1848    1.3862 H   0  0  0  0  0  0  0  0  0  0  0  0
    3.4560   -2.7502   -0.2818 H   0  0  0  0  0  0  0  0  0  0  0  0
    3.6205   -0.8040    2.0785 H   0  0  0  0  0  0  0  0  0  0  0  0
    4.8218   -0.9403    0.7733 H   0  0  0  0  0  0  0  0  0  0  0  0
    3.5975    2.9861    2.1609 H   0  0  0  0  0  0  0  0  0  0  0  0
    4.8944    2.4901    1.0606 H   0  0  0  0  0  0  0  0  0  0  0  0
    4.4083    1.4325    2.3993 H   0  0  0  0  0  0  0  0  0  0  0  0
   -0.0239   -0.1602    0.9131 H   0  0  0  0  0  0  0  0  0  0  0  0
   -0.3526    1.5476    1.2401 H   0  0  0  0  0  0  0  0  0  0  0  0
   -0.8164   -0.6370    3.3527 H   0  0  0  0  0  0  0  0  0  0  0  0
   -1.2836    1.0552    3.4543 H   0  0  0  0  0  0  0  0  0  0  0  0
   -3.0889   -0.0148    3.0907 H   0  0  0  0  0  0  0  0  0  0  0  0
   -4.3235    0.5818    1.3842 H   0  0  0  0  0  0  0  0  0  0  0  0
   -3.4224    1.5302   -0.7256 H   0  0  0  0  0  0  0  0  0  0  0  0
   -1.7937    1.0322   -0.2962 H   0  0  0  0  0  0  0  0  0  0  0  0
   -3.0577   -0.1776   -0.5654 H   0  0  0  0  0  0  0  0  0  0  0  0
   -3.8481    2.9641    1.3489 H   0  0  0  0  0  0  0  0  0  0  0  0
   -2.1711    2.7110    1.8226 H   0  0  0  0  0  0  0  0  0  0  0  0
   -3.4825    2.3131    2.9488 H   0  0  0  0  0  0  0  0  0  0  0  0
   -3.7373   -1.6131    1.3019 H   0  0  0  0  0  0  0  0  0  0  0  0
   -0.7584   -2.3154    1.6129 H   0  0  0  0  0  0  0  0  0  0  0  0
   -1.4994   -1.6784    0.1288 H   0  0  0  0  0  0  0  0  0  0  0  0
   -1.9808   -3.2473    0.7585 H   0  0  0  0  0  0  0  0  0  0  0  0
   -2.1593   -2.4064    3.8088 H   0  0  0  0  0  0  0  0  0  0  0  0
   -3.3155   -3.4199    2.9384 H   0  0  0  0  0  0  0  0  0  0  0  0
   -3.8718   -1.9512    3.7451 H   0  0  0  0  0  0  0  0  0  0  0  0
    3.8806    1.8381   -0.9417 O   0  0  0  0  0  0  0  0  0  0  0  0
    4.7512    2.2326   -0.6837 H   0  0  0  0  0  0  0  0  0  0  0  0
  1  2  1  0
  2  3  1  0
  4  3  1  1
  4  5  1  0
  4  6  2  0
  7  8  1  0
  8  9  1  0
  9 10  1  0
 10 11  1  0
 11 12  1  0
 11 13  1  0
 10 14  1  0
 14 15  1  0
 14 16  1  0
  1 17  1  0
  1 18  1  0
  1 19  1  0
  2 20  1  0
  2 21  1  0
  5 22  1  0
  5 23  1  0
  5 24  1  0
  8 25  1  0
  8 26  1  0
  9 27  1  0
  9 28  1  0
 10 29  1  0
 11 30  1  0
 12 31  1  0
 12 32  1  0
 12 33  1  0
 13 34  1  0
 13 35  1  0
 13 36  1  0
 14 37  1  0
 15 38  1  0
 15 39  1  0
 15 40  1  0
 16 41  1  0
 16 42  1  0
 16 43  1  0
 44 45  1  0
  4 44  1  0
  4  7  1  0
M  CHG  1  10   1
M  END
$$$$
