VX
     RDKit          3D

 45 44  0  0  0  0  0  0  0  0999 V2000
    4.4386   -0.3594   -1.7493 C   0  0  0  0  0  0  0  0  0  0  0  0
    3.0742   -0.6151   -1.1449 C   0  0  0  0  0  0  0  0  0  0  0  0
    3.0168   -0.1967    0.2100 O   0  0  0  0  0  0  0  0  0  0  0  0
    2.8263    1.3657    0.5667 P   0  0  0  0  0  0  0  0  0  0  0  0
    4.0387    2.1152    1.6361 C   0  0  0  0  0  0  0  0  0  0  0  0
    1.6831    2.1858    0.0350 O   0  0  0  0  0  0  0  0  0  0  0  0
    1.5294    0.7781    2.4488 S   0  0  0  0  0  0  0  0  0  0  0  0
    0.0948    1.8911    2.3351 C   0  0  0  0  0  0  0  0  0  0  0  0
   -0.8354    1.5746    1.1503 C   0  0  0  0  0  0  0  0  0  0  0  0
   -2.0364    0.6904    1.5396 N   0  0  0  0  0  0  0  0  0  0  0  0
   -1.6691   -0.7391    1.9645 C   0  0  0  0  0  0  0  0  0  0  0  0
   -1.2819   -1.6191    0.7849 C   0  0  0  0  0  0  0  0  0  0  0  0
   -2.8013   -1.3495    2.7934 C   0  0  0  0  0  0  0  0  0  0  0  0
   -3.2251    0.8019    0.5623 C   0  0  0  0  0  0  0  0  0  0  0  0
   -2.7932    0.9024   -0.8997 C   0  0  0  0  0  0  0  0  0  0  0  0
   -4.0813    2.0015    0.9711 C   0  0  0  0  0  0  0  0  0  0  0  0
    4.6202    0.7136   -1.8556 H   0  0  0  0  0  0  0  0  0  0  0  0
    5.2311   -0.7640   -1.1111 H   0  0  0  0  0  0  0  0  0  0  0  0
    4.5131   -0.8150   -2.7411 H   0  0  0  0  0  0  0  0  0  0  0  0
    2.8661   -1.6891   -1.1577 H   0  0  0  0  0  0  0  0  0  0  0  0
    2.2854   -0.1271   -1.7269 H   0  0  0  0  0  0  0  0  0  0  0  0
    4.8669    2.5460    1.0683 H   0  0  0  0  0  0  0  0  0  0  0  0
    3.5818    2.9178    2.2242 H   0  0  0  0  0  0  0  0  0  0  0  0
    4.4495    1.3764    2.3302 H   0  0  0  0  0  0  0  0  0  0  0  0
   -0.4480    1.8649    3.2857 H   0  0  0  0  0  0  0  0  0  0  0  0
    0.4924    2.9055    2.2202 H   0  0  0  0  0  0  0  0  0  0  0  0
   -0.3388    1.0961    0.3035 H   0  0  0  0  0  0  0  0  0  0  0  0
   -1.2673    2.5234    0.8172 H   0  0  0  0  0  0  0  0  0  0  0  0
   -2.3820    1.1105    2.4111 H   0  0  0  0  0  0  0  0  0  0  0  0
   -0.8181   -0.6459    2.6398 H   0  0  0  0  0  0  0  0  0  0  0  0
   -0.4709   -1.1789    0.1974 H   0  0  0  0  0  0  0  0  0  0  0  0
   -0.9280   -2.5914    1.1451 H   0  0  0  0  0  0  0  0  0  0  0  0
   -2.1300   -1.8149    0.1215 H   0  0  0  0  0  0  0  0  0  0  0  0
   -2.4650   -2.2851    3.2546 H   0  0  0  0  0  0  0  0  0  0  0  0
   -3.1091   -0.6773    3.6011 H   0  0  0  0  0  0  0  0  0  0  0  0
   -3.6828   -1.5896    2.1920 H   0  0  0  0  0  0  0  0  0  0  0  0
   -3.8325   -0.0984    0.6880 H   0  0  0  0  0  0  0  0  0  0  0  0
   -2.1190    0.0939   -1.1920 H   0  0  0  0  0  0  0  0  0  0  0  0
   -3.6732    0.8400   -1.5501 H   0  0  0  0  0  0  0  0  0  0  0  0
   -2.3027    1.8550   -1.1251 H   0  0  0  0  0  0  0  0  0  0  0  0
   -4.9705    2.0700    0.3353 H   0  0  0  0  0  0  0  0  0  0  0  0
   -3.5344    2.9457    0.8806 H   0  0  0  0  0  0  0  0  0  0  0  0
   -4.4247    1.9053    2.0072 H   0  0  0  0  0  0  0  0  0  0  0  0
    3.8704    1.8388   -0.9486 O   0  0  0  0  0  0  0  0  0  0  0  0
    4.7410    2.2332   -0.6905 H   0  0  0  0  0  0  0  0  0  0  0  0
  1  2  1  0
  2  3  1  0
  4  3  1  1
  4  5  1  0
  4  6  2  0
  7  8  1  0
  8  9  1  0
  9 10  1  0
 10 11  1  0
 11 12  1  0
 11 13  1  0
 10 14  1  0
 14 15  1  0
 14 16  1  0
  1 17  1  0
  1 18  1  0
  1 19  1  0
  2 20  1  0
  2 21  1  0
  5 22  1  0
  5 23  1  0
  5 24  1  0
  8 25  1  0
  8 26  1  0
  9 27  1  0
  9 28  1  0
 10 29  1  0
 11 30  1  0
 12 31  1  0
 12 32  1  0
 12 33  1  0
 13 34  1  0
 13 35  1  0
 13 36  1  0
 14 37  1  0
 15 38  1  0
 15 39  1  0
 15 40  1  0
 16 41  1  0
 16 42  1  0
 16 43  1  0
 44 45  1  0
  4 44  1  0
  4  7  1  0
M  CHG  1  10   1
M  END
$$$$
