VX
     RDKit          3D

 45 44  0  0  0  0  0  0  0  0999 V2000
    3.0161    2.4591    1.0660 C   0  0  0  0  0  0  0  0  0  0  0  0
    3.8482    1.2005    0.9322 C   0  0  0  0  0  0  0  0  0  0  0  0
    2.9882    0.0709    0.9815 O   0  0  0  0  0  0  0  0  0  0  0  0
    2.6908   -0.7379   -0.3824 P   0  0  0  0  0  0  0  0  0  0  0  0
    3.5460   -2.2706   -0.6815 C   0  0  0  0  0  0  0  0  0  0  0  0
    1.7091   -0.2158   -1.3927 O   0  0  0  0  0  0  0  0  0  0  0  0
    0.9541   -1.9173    0.6957 S   0  0  0  0  0  0  0  0  0  0  0  0
   -0.0051   -0.6029    1.5138 C   0  0  0  0  0  0  0  0  0  0  0  0
   -0.8067    0.2800    0.5391 C   0  0  0  0  0  0  0  0  0  0  0  0
   -1.4868   -0.5320   -0.5867 N   0  0  0  0  0  0  0  0  0  0  0  0
   -1.2691    0.1827   -1.9465 C   0  0  0  0  0  0  0  0  0  0  0  0
   -2.3638    1.1996   -2.2447 C   0  0  0  0  0  0  0  0  0  0  0  0
   -1.0384   -0.8229   -3.0710 C   0  0  0  0  0  0  0  0  0  0  0  0
   -2.9267   -0.9803   -0.2619 C   0  0  0  0  0  0  0  0  0  0  0  0
   -3.0161   -1.6347    1.1178 C   0  0  0  0  0  0  0  0  0  0  0  0
   -3.4344   -1.9863   -1.2938 C   0  0  0  0  0  0  0  0  0  0  0  0
    3.6515    3.3491    1.0597 H   0  0  0  0  0  0  0  0  0  0  0  0
    2.2946    2.5355    0.2460 H   0  0  0  0  0  0  0  0  0  0  0  0
    2.4389    2.4429    1.9962 H   0  0  0  0  0  0  0  0  0  0  0  0
    4.5537    1.1235    1.7647 H   0  0  0  0  0  0  0  0  0  0  0  0
    4.4230    1.2174    0.0010 H   0  0  0  0  0  0  0  0  0  0  0  0
    2.9330   -2.9357   -1.2961 H   0  0  0  0  0  0  0  0  0  0  0  0
    4.4889   -2.0983   -1.2074 H   0  0  0  0  0  0  0  0  0  0  0  0
    3.7684   -2.7813    0.2596 H   0  0  0  0  0  0  0  0  0  0  0  0
   -0.6634   -1.0859    2.2387 H   0  0  0  0  0  0  0  0  0  0  0  0
    0.6766    0.0257    2.0958 H   0  0  0  0  0  0  0  0  0  0  0  0
   -1.5825    0.8607    1.0494 H   0  0  0  0  0  0  0  0  0  0  0  0
   -0.1182    0.9996    0.0858 H   0  0  0  0  0  0  0  0  0  0  0  0
   -0.9159   -1.3907   -0.6467 H   0  0  0  0  0  0  0  0  0  0  0  0
   -0.3351    0.7417   -1.8570 H   0  0  0  0  0  0  0  0  0  0  0  0
   -2.5019    1.8901   -1.4065 H   0  0  0  0  0  0  0  0  0  0  0  0
   -2.0897    1.7976   -3.1210 H   0  0  0  0  0  0  0  0  0  0  0  0
   -3.3250    0.7298   -2.4686 H   0  0  0  0  0  0  0  0  0  0  0  0
   -1.9528   -1.3102   -3.4105 H   0  0  0  0  0  0  0  0  0  0  0  0
   -0.6201   -0.3085   -3.9440 H   0  0  0  0  0  0  0  0  0  0  0  0
   -0.3228   -1.5969   -2.7762 H   0  0  0  0  0  0  0  0  0  0  0  0
   -3.5515   -0.0810   -0.2606 H   0  0  0  0  0  0  0  0  0  0  0  0
   -2.8346   -0.9145    1.9199 H   0  0  0  0  0  0  0  0  0  0  0  0
   -4.0245   -2.0277    1.2923 H   0  0  0  0  0  0  0  0  0  0  0  0
   -2.3175   -2.4715    1.2157 H   0  0  0  0  0  0  0  0  0  0  0  0
   -3.6799   -1.5043   -2.2419 H   0  0  0  0  0  0  0  0  0  0  0  0
   -2.7057   -2.7835   -1.4740 H   0  0  0  0  0  0  0  0  0  0  0  0
   -4.3640   -2.4580   -0.9547 H   0  0  0  0  0  0  0  0  0  0  0  0
    4.0890    0.2116   -1.2504 O   0  0  0  0  0  0  0  0  0  0  0  0
    4.7088    0.6326   -0.6033 H   0  0  0  0  0  0  0  0  0  0  0  0
  1  2  1  0
  2  3  1  0
  4  3  1  1
  4  5  1  0
  4  6  2  0
  7  8  1  0
  8  9  1  0
  9 10  1  0
 10 11  1  0
 11 12  1  0
 11 13  1  0
 10 14  1  0
 14 15  1  0
 14 16  1  0
  1 17  1  0
  1 18  1  0
  1 19  1  0
  2 20  1  0
  2 21  1  0
  5 22  1  0
  5 23  1  0
  5 24  1  0
  8 25  1  0
  8 26  1  0
  9 27  1  0
  9 28  1  0
 10 29  1  0
 11 30  1  0
 12 31  1  0
 12 32  1  0
 12 33  1  0
 13 34  1  0
 13 35  1  0
 13 36  1  0
 14 37  1  0
 15 38  1  0
 15 39  1  0
 15 40  1  0
 16 41  1  0
 16 42  1  0
 16 43  1  0
 44 45  1  0
  4 44  1  0
  4  7  1  0
M  CHG  1  10   1
M  END
$$$$
