VX
     RDKit          3D

 45 44  0  0  0  0  0  0  0  0999 V2000
    2.3357   -2.3458   -0.5349 C   0  0  0  0  0  0  0  0  0  0  0  0
    2.0182   -0.8654   -0.5087 C   0  0  0  0  0  0  0  0  0  0  0  0
    3.0321   -0.1950    0.2211 O   0  0  0  0  0  0  0  0  0  0  0  0
    2.8165    1.3660    0.5599 P   0  0  0  0  0  0  0  0  0  0  0  0
    4.0383    2.1022    1.6318 C   0  0  0  0  0  0  0  0  0  0  0  0
    1.6781    2.1970    0.0350 O   0  0  0  0  0  0  0  0  0  0  0  0
    1.5196    0.7783    2.4420 S   0  0  0  0  0  0  0  0  0  0  0  0
    0.5144    2.2520    2.7888 C   0  0  0  0  0  0  0  0  0  0  0  0
   -0.4882    2.5694    1.6606 C   0  0  0  0  0  0  0  0  0  0  0  0
   -1.7955    3.2041    2.2090 N   0  0  0  0  0  0  0  0  0  0  0  0
   -2.9461    3.1604    1.1652 C   0  0  0  0  0  0  0  0  0  0  0  0
   -4.2629    3.6291    1.7849 C   0  0  0  0  0  0  0  0  0  0  0  0
   -3.1608    1.7302    0.6507 C   0  0  0  0  0  0  0  0  0  0  0  0
   -1.4893    4.5772    2.8490 C   0  0  0  0  0  0  0  0  0  0  0  0
   -2.3550    4.8128    4.0835 C   0  0  0  0  0  0  0  0  0  0  0  0
   -1.5223    5.7213    1.8428 C   0  0  0  0  0  0  0  0  0  0  0  0
    1.5757   -2.8983   -1.0942 H   0  0  0  0  0  0  0  0  0  0  0  0
    2.3870   -2.7468    0.4828 H   0  0  0  0  0  0  0  0  0  0  0  0
    3.3128   -2.5228   -0.9964 H   0  0  0  0  0  0  0  0  0  0  0  0
    1.0474   -0.6961   -0.0323 H   0  0  0  0  0  0  0  0  0  0  0  0
    1.9876   -0.4680   -1.5280 H   0  0  0  0  0  0  0  0  0  0  0  0
    4.4314    1.3642    2.3368 H   0  0  0  0  0  0  0  0  0  0  0  0
    3.6022    2.9268    2.2025 H   0  0  0  0  0  0  0  0  0  0  0  0
    4.8732    2.4946    1.0445 H   0  0  0  0  0  0  0  0  0  0  0  0
   -0.0101    2.0606    3.7304 H   0  0  0  0  0  0  0  0  0  0  0  0
    1.1947    3.0945    2.9463 H   0  0  0  0  0  0  0  0  0  0  0  0
   -0.7685    1.6406    1.1659 H   0  0  0  0  0  0  0  0  0  0  0  0
   -0.0914    3.2770    0.9292 H   0  0  0  0  0  0  0  0  0  0  0  0
   -2.1019    2.5799    2.9676 H   0  0  0  0  0  0  0  0  0  0  0  0
   -2.6535    3.8075    0.3319 H   0  0  0  0  0  0  0  0  0  0  0  0
   -5.1025    3.4336    1.1076 H   0  0  0  0  0  0  0  0  0  0  0  0
   -4.2751    4.7059    1.9603 H   0  0  0  0  0  0  0  0  0  0  0  0
   -4.4718    3.1118    2.7273 H   0  0  0  0  0  0  0  0  0  0  0  0
   -4.1025    1.6508    0.0954 H   0  0  0  0  0  0  0  0  0  0  0  0
   -3.1948    1.0059    1.4717 H   0  0  0  0  0  0  0  0  0  0  0  0
   -2.3797    1.4313   -0.0546 H   0  0  0  0  0  0  0  0  0  0  0  0
   -0.4643    4.5135    3.2247 H   0  0  0  0  0  0  0  0  0  0  0  0
   -2.3482    3.9400    4.7449 H   0  0  0  0  0  0  0  0  0  0  0  0
   -1.9586    5.6589    4.6567 H   0  0  0  0  0  0  0  0  0  0  0  0
   -3.3910    5.0572    3.8474 H   0  0  0  0  0  0  0  0  0  0  0  0
   -2.5298    5.9418    1.4828 H   0  0  0  0  0  0  0  0  0  0  0  0
   -1.1446    6.6383    2.3092 H   0  0  0  0  0  0  0  0  0  0  0  0
   -0.8863    5.5116    0.9771 H   0  0  0  0  0  0  0  0  0  0  0  0
    3.8606    1.8391   -0.9553 O   0  0  0  0  0  0  0  0  0  0  0  0
    4.7312    2.2336   -0.6973 H   0  0  0  0  0  0  0  0  0  0  0  0
  1  2  1  0
  2  3  1  0
  4  3  1  1
  4  5  1  0
  4  6  2  0
  7  8  1  0
  8  9  1  0
  9 10  1  0
 10 11  1  0
 11 12  1  0
 11 13  1  0
 10 14  1  0
 14 15  1  0
 14 16  1  0
  1 17  1  0
  1 18  1  0
  1 19  1  0
  2 20  1  0
  2 21  1  0
  5 22  1  0
  5 23  1  0
  5 24  1  0
  8 25  1  0
  8 26  1  0
  9 27  1  0
  9 28  1  0
 10 29  1  0
 11 30  1  0
 12 31  1  0
 12 32  1  0
 12 33  1  0
 13 34  1  0
 13 35  1  0
 13 36  1  0
 14 37  1  0
 15 38  1  0
 15 39  1  0
 15 40  1  0
 16 41  1  0
 16 42  1  0
 16 43  1  0
 44 45  1  0
  4 44  1  0
  4  7  1  0
M  CHG  1  10   1
M  END
$$$$
