VX
     RDKit          3D

 45 44  0  0  0  0  0  0  0  0999 V2000
    3.5889   -2.0362   -1.2095 C   0  0  0  0  0  0  0  0  0  0  0  0
    3.4830   -0.5237   -1.1001 C   0  0  0  0  0  0  0  0  0  0  0  0
    2.9962   -0.2022    0.1941 O   0  0  0  0  0  0  0  0  0  0  0  0
    2.8385    1.3668    0.5754 P   0  0  0  0  0  0  0  0  0  0  0  0
    4.0396    2.1343    1.6426 C   0  0  0  0  0  0  0  0  0  0  0  0
    1.6906    2.1713    0.0356 O   0  0  0  0  0  0  0  0  0  0  0  0
    1.5416    0.7791    2.4575 S   0  0  0  0  0  0  0  0  0  0  0  0
    0.1589   -0.0854    1.6653 C   0  0  0  0  0  0  0  0  0  0  0  0
   -0.9298   -0.4183    2.6853 C   0  0  0  0  0  0  0  0  0  0  0  0
   -1.9059   -1.4846    2.1515 N   0  0  0  0  0  0  0  0  0  0  0  0
   -3.3044   -1.4346    2.8093 C   0  0  0  0  0  0  0  0  0  0  0  0
   -3.2106   -1.5144    4.3256 C   0  0  0  0  0  0  0  0  0  0  0  0
   -4.0699   -0.2002    2.3411 C   0  0  0  0  0  0  0  0  0  0  0  0
   -1.3821   -2.9407    2.0577 C   0  0  0  0  0  0  0  0  0  0  0  0
   -1.0872   -3.2716    0.5984 C   0  0  0  0  0  0  0  0  0  0  0  0
   -0.1924   -3.2325    2.9669 C   0  0  0  0  0  0  0  0  0  0  0  0
    2.6044   -2.4938   -1.0475 H   0  0  0  0  0  0  0  0  0  0  0  0
    4.2616   -2.4383   -0.4408 H   0  0  0  0  0  0  0  0  0  0  0  0
    3.9580   -2.3400   -2.1958 H   0  0  0  0  0  0  0  0  0  0  0  0
    4.4640   -0.0555   -1.2551 H   0  0  0  0  0  0  0  0  0  0  0  0
    2.7813   -0.1515   -1.8534 H   0  0  0  0  0  0  0  0  0  0  0  0
    4.8528    2.5754    1.0600 H   0  0  0  0  0  0  0  0  0  0  0  0
    3.5878    2.9251    2.2434 H   0  0  0  0  0  0  0  0  0  0  0  0
    4.4693    1.3986    2.3301 H   0  0  0  0  0  0  0  0  0  0  0  0
    0.5745   -0.9761    1.1911 H   0  0  0  0  0  0  0  0  0  0  0  0
   -0.2567    0.5423    0.8762 H   0  0  0  0  0  0  0  0  0  0  0  0
   -1.5153    0.4888    2.8711 H   0  0  0  0  0  0  0  0  0  0  0  0
   -0.5419   -0.7728    3.6498 H   0  0  0  0  0  0  0  0  0  0  0  0
   -2.0970   -1.2044    1.1816 H   0  0  0  0  0  0  0  0  0  0  0  0
   -3.8531   -2.3083    2.4268 H   0  0  0  0  0  0  0  0  0  0  0  0
   -4.2176   -1.6243    4.7519 H   0  0  0  0  0  0  0  0  0  0  0  0
   -2.7679   -0.6084    4.7587 H   0  0  0  0  0  0  0  0  0  0  0  0
   -2.6219   -2.3746    4.6501 H   0  0  0  0  0  0  0  0  0  0  0  0
   -4.0956   -0.1378    1.2482 H   0  0  0  0  0  0  0  0  0  0  0  0
   -5.1045   -0.2508    2.6930 H   0  0  0  0  0  0  0  0  0  0  0  0
   -3.6478    0.7289    2.7245 H   0  0  0  0  0  0  0  0  0  0  0  0
   -2.2009   -3.5979    2.3750 H   0  0  0  0  0  0  0  0  0  0  0  0
   -0.7202   -4.3011    0.5090 H   0  0  0  0  0  0  0  0  0  0  0  0
   -1.9965   -3.1947   -0.0177 H   0  0  0  0  0  0  0  0  0  0  0  0
   -0.3332   -2.6104    0.1649 H   0  0  0  0  0  0  0  0  0  0  0  0
    0.0488   -4.3060    2.9328 H   0  0  0  0  0  0  0  0  0  0  0  0
   -0.4043   -2.9915    4.0132 H   0  0  0  0  0  0  0  0  0  0  0  0
    0.7097   -2.6964    2.6622 H   0  0  0  0  0  0  0  0  0  0  0  0
    3.8826    1.8399   -0.9398 O   0  0  0  0  0  0  0  0  0  0  0  0
    4.7532    2.2344   -0.6818 H   0  0  0  0  0  0  0  0  0  0  0  0
  1  2  1  0
  2  3  1  0
  4  3  1  1
  4  5  1  0
  4  6  2  0
  7  8  1  0
  8  9  1  0
  9 10  1  0
 10 11  1  0
 11 12  1  0
 11 13  1  0
 10 14  1  0
 14 15  1  0
 14 16  1  0
  1 17  1  0
  1 18  1  0
  1 19  1  0
  2 20  1  0
  2 21  1  0
  5 22  1  0
  5 23  1  0
  5 24  1  0
  8 25  1  0
  8 26  1  0
  9 27  1  0
  9 28  1  0
 10 29  1  0
 11 30  1  0
 12 31  1  0
 12 32  1  0
 12 33  1  0
 13 34  1  0
 13 35  1  0
 13 36  1  0
 14 37  1  0
 15 38  1  0
 15 39  1  0
 15 40  1  0
 16 41  1  0
 16 42  1  0
 16 43  1  0
 44 45  1  0
  4 44  1  0
  4  7  1  0
M  CHG  1  10   1
M  END
$$$$
