VX
     RDKit          3D

 45 44  0  0  0  0  0  0  0  0999 V2000
    3.8550   -1.9857   -1.1259 C   0  0  0  0  0  0  0  0  0  0  0  0
    3.4388   -0.5306   -1.1035 C   0  0  0  0  0  0  0  0  0  0  0  0
    3.0195   -0.1968    0.2119 O   0  0  0  0  0  0  0  0  0  0  0  0
    2.8235    1.3661    0.5648 P   0  0  0  0  0  0  0  0  0  0  0  0
    4.0392    2.1134    1.6358 C   0  0  0  0  0  0  0  0  0  0  0  0
    1.6828    2.1875    0.0353 O   0  0  0  0  0  0  0  0  0  0  0  0
    1.5266    0.7784    2.4469 S   0  0  0  0  0  0  0  0  0  0  0  0
    0.6506    2.3228    2.8549 C   0  0  0  0  0  0  0  0  0  0  0  0
   -0.5827    2.0271    3.7112 C   0  0  0  0  0  0  0  0  0  0  0  0
   -1.4907    0.9638    3.0733 N   0  0  0  0  0  0  0  0  0  0  0  0
   -2.1862    0.1056    4.1385 C   0  0  0  0  0  0  0  0  0  0  0  0
   -3.3495    0.8483    4.7829 C   0  0  0  0  0  0  0  0  0  0  0  0
   -2.5996   -1.2403    3.5475 C   0  0  0  0  0  0  0  0  0  0  0  0
   -2.3856    1.3974    1.8971 C   0  0  0  0  0  0  0  0  0  0  0  0
   -1.7019    1.0669    0.5724 C   0  0  0  0  0  0  0  0  0  0  0  0
   -2.8046    2.8620    1.9675 C   0  0  0  0  0  0  0  0  0  0  0  0
    3.0291   -2.6302   -0.8058 H   0  0  0  0  0  0  0  0  0  0  0  0
    4.1721   -2.2869   -2.1286 H   0  0  0  0  0  0  0  0  0  0  0  0
    4.6804   -2.1622   -0.4277 H   0  0  0  0  0  0  0  0  0  0  0  0
    2.6058   -0.3639   -1.7929 H   0  0  0  0  0  0  0  0  0  0  0  0
    4.2774    0.1037   -1.4028 H   0  0  0  0  0  0  0  0  0  0  0  0
    4.8754    2.5166    1.0578 H   0  0  0  0  0  0  0  0  0  0  0  0
    3.5943    2.9356    2.2046 H   0  0  0  0  0  0  0  0  0  0  0  0
    4.4360    1.3794    2.3431 H   0  0  0  0  0  0  0  0  0  0  0  0
    0.3608    2.8389    1.9373 H   0  0  0  0  0  0  0  0  0  0  0  0
    1.3367    2.9807    3.3973 H   0  0  0  0  0  0  0  0  0  0  0  0
   -1.1739    2.9231    3.9171 H   0  0  0  0  0  0  0  0  0  0  0  0
   -0.2506    1.6320    4.6787 H   0  0  0  0  0  0  0  0  0  0  0  0
   -0.8006    0.3117    2.6633 H   0  0  0  0  0  0  0  0  0  0  0  0
   -1.4269   -0.1005    4.9013 H   0  0  0  0  0  0  0  0  0  0  0  0
   -4.1683    1.0204    4.0801 H   0  0  0  0  0  0  0  0  0  0  0  0
   -3.0353    1.8143    5.1861 H   0  0  0  0  0  0  0  0  0  0  0  0
   -3.7553    0.2625    5.6148 H   0  0  0  0  0  0  0  0  0  0  0  0
   -1.7643   -1.7179    3.0244 H   0  0  0  0  0  0  0  0  0  0  0  0
   -2.9194   -1.9166    4.3478 H   0  0  0  0  0  0  0  0  0  0  0  0
   -3.4367   -1.1529    2.8490 H   0  0  0  0  0  0  0  0  0  0  0  0
   -3.2919    0.7891    1.9487 H   0  0  0  0  0  0  0  0  0  0  0  0
   -0.8206    1.6872    0.3993 H   0  0  0  0  0  0  0  0  0  0  0  0
   -1.4005    0.0142    0.5350 H   0  0  0  0  0  0  0  0  0  0  0  0
   -2.3901    1.2418   -0.2628 H   0  0  0  0  0  0  0  0  0  0  0  0
   -3.2798    3.1028    2.9232 H   0  0  0  0  0  0  0  0  0  0  0  0
   -1.9594    3.5416    1.8179 H   0  0  0  0  0  0  0  0  0  0  0  0
   -3.5346    3.0812    1.1792 H   0  0  0  0  0  0  0  0  0  0  0  0
    3.8676    1.8392   -0.9504 O   0  0  0  0  0  0  0  0  0  0  0  0
    4.7382    2.2337   -0.6924 H   0  0  0  0  0  0  0  0  0  0  0  0
  1  2  1  0
  2  3  1  0
  4  3  1  1
  4  5  1  0
  4  6  2  0
  7  8  1  0
  8  9  1  0
  9 10  1  0
 10 11  1  0
 11 12  1  0
 11 13  1  0
 10 14  1  0
 14 15  1  0
 14 16  1  0
  1 17  1  0
  1 18  1  0
  1 19  1  0
  2 20  1  0
  2 21  1  0
  5 22  1  0
  5 23  1  0
  5 24  1  0
  8 25  1  0
  8 26  1  0
  9 27  1  0
  9 28  1  0
 10 29  1  0
 11 30  1  0
 12 31  1  0
 12 32  1  0
 12 33  1  0
 13 34  1  0
 13 35  1  0
 13 36  1  0
 14 37  1  0
 15 38  1  0
 15 39  1  0
 15 40  1  0
 16 41  1  0
 16 42  1  0
 16 43  1  0
 44 45  1  0
  4 44  1  0
  4  7  1  0
M  CHG  1  10   1
M  END
$$$$
