VX
     RDKit          3D

 45 44  0  0  0  0  0  0  0  0999 V2000
    4.7462   -0.0565    2.5801 C   0  0  0  0  0  0  0  0  0  0  0  0
    3.3893   -0.5839    2.1624 C   0  0  0  0  0  0  0  0  0  0  0  0
    2.9786    0.0830    0.9793 O   0  0  0  0  0  0  0  0  0  0  0  0
    2.6970   -0.7443   -0.3795 P   0  0  0  0  0  0  0  0  0  0  0  0
    3.5464   -2.2793   -0.6904 C   0  0  0  0  0  0  0  0  0  0  0  0
    1.7122   -0.2128   -1.3845 O   0  0  0  0  0  0  0  0  0  0  0  0
    0.9603   -1.9237    0.6986 S   0  0  0  0  0  0  0  0  0  0  0  0
   -0.5661   -1.1129    0.1168 C   0  0  0  0  0  0  0  0  0  0  0  0
   -0.5907    0.3750    0.4764 C   0  0  0  0  0  0  0  0  0  0  0  0
   -1.8317    1.1580    0.0363 N   0  0  0  0  0  0  0  0  0  0  0  0
   -1.8154    1.7562   -1.3834 C   0  0  0  0  0  0  0  0  0  0  0  0
   -0.8831    2.9695   -1.4163 C   0  0  0  0  0  0  0  0  0  0  0  0
   -1.4503    0.7513   -2.4650 C   0  0  0  0  0  0  0  0  0  0  0  0
   -3.2157    0.7110    0.5175 C   0  0  0  0  0  0  0  0  0  0  0  0
   -3.1870    0.3459    1.9997 C   0  0  0  0  0  0  0  0  0  0  0  0
   -3.8385   -0.3810   -0.3416 C   0  0  0  0  0  0  0  0  0  0  0  0
    5.4908   -0.2429    1.7994 H   0  0  0  0  0  0  0  0  0  0  0  0
    5.0808   -0.5311    3.5066 H   0  0  0  0  0  0  0  0  0  0  0  0
    4.7090    1.0274    2.7318 H   0  0  0  0  0  0  0  0  0  0  0  0
    2.6488   -0.3744    2.9405 H   0  0  0  0  0  0  0  0  0  0  0  0
    3.4272   -1.6674    2.0190 H   0  0  0  0  0  0  0  0  0  0  0  0
    2.9549   -2.9084   -1.3618 H   0  0  0  0  0  0  0  0  0  0  0  0
    3.7206   -2.8430    0.2296 H   0  0  0  0  0  0  0  0  0  0  0  0
    4.5129   -2.0901   -1.1659 H   0  0  0  0  0  0  0  0  0  0  0  0
   -1.3849   -1.6442    0.6041 H   0  0  0  0  0  0  0  0  0  0  0  0
   -0.6468   -1.2851   -0.9566 H   0  0  0  0  0  0  0  0  0  0  0  0
   -0.5381    0.4954    1.5652 H   0  0  0  0  0  0  0  0  0  0  0  0
    0.2650    0.9170    0.0721 H   0  0  0  0  0  0  0  0  0  0  0  0
   -1.7128    2.0074    0.6045 H   0  0  0  0  0  0  0  0  0  0  0  0
   -2.8331    2.1217   -1.5651 H   0  0  0  0  0  0  0  0  0  0  0  0
    0.1634    2.6912   -1.2587 H   0  0  0  0  0  0  0  0  0  0  0  0
   -0.9465    3.4692   -2.3892 H   0  0  0  0  0  0  0  0  0  0  0  0
   -1.1606    3.7037   -0.6525 H   0  0  0  0  0  0  0  0  0  0  0  0
   -0.3965    0.4691   -2.4209 H   0  0  0  0  0  0  0  0  0  0  0  0
   -2.0556   -0.1560   -2.4190 H   0  0  0  0  0  0  0  0  0  0  0  0
   -1.6140    1.1953   -3.4537 H   0  0  0  0  0  0  0  0  0  0  0  0
   -3.8427    1.6075    0.4238 H   0  0  0  0  0  0  0  0  0  0  0  0
   -4.2074    0.2031    2.3727 H   0  0  0  0  0  0  0  0  0  0  0  0
   -2.6416   -0.5824    2.1901 H   0  0  0  0  0  0  0  0  0  0  0  0
   -2.7306    1.1440    2.5949 H   0  0  0  0  0  0  0  0  0  0  0  0
   -3.2220   -1.2772   -0.4169 H   0  0  0  0  0  0  0  0  0  0  0  0
   -4.0449   -0.0210   -1.3538 H   0  0  0  0  0  0  0  0  0  0  0  0
   -4.8031   -0.6864    0.0798 H   0  0  0  0  0  0  0  0  0  0  0  0
    4.0952    0.2052   -1.2475 O   0  0  0  0  0  0  0  0  0  0  0  0
    4.7150    0.6262   -0.6004 H   0  0  0  0  0  0  0  0  0  0  0  0
  1  2  1  0
  2  3  1  0
  4  3  1  1
  4  5  1  0
  4  6  2  0
  7  8  1  0
  8  9  1  0
  9 10  1  0
 10 11  1  0
 11 12  1  0
 11 13  1  0
 10 14  1  0
 14 15  1  0
 14 16  1  0
  1 17  1  0
  1 18  1  0
  1 19  1  0
  2 20  1  0
  2 21  1  0
  5 22  1  0
  5 23  1  0
  5 24  1  0
  8 25  1  0
  8 26  1  0
  9 27  1  0
  9 28  1  0
 10 29  1  0
 11 30  1  0
 12 31  1  0
 12 32  1  0
 12 33  1  0
 13 34  1  0
 13 35  1  0
 13 36  1  0
 14 37  1  0
 15 38  1  0
 15 39  1  0
 15 40  1  0
 16 41  1  0
 16 42  1  0
 16 43  1  0
 44 45  1  0
  4 44  1  0
  4  7  1  0
M  CHG  1  10   1
M  END
$$$$
