VX
     RDKit          3D

 45 44  0  0  0  0  0  0  0  0999 V2000
    4.2358   -1.8792   -0.9330 C   0  0  0  0  0  0  0  0  0  0  0  0
    3.5172   -0.5531   -1.0743 C   0  0  0  0  0  0  0  0  0  0  0  0
    2.9964   -0.1947    0.1966 O   0  0  0  0  0  0  0  0  0  0  0  0
    2.8391    1.3640    0.5749 P   0  0  0  0  0  0  0  0  0  0  0  0
    4.0398    2.1311    1.6418 C   0  0  0  0  0  0  0  0  0  0  0  0
    1.6897    2.1696    0.0345 O   0  0  0  0  0  0  0  0  0  0  0  0
    1.5422    0.7763    2.4570 S   0  0  0  0  0  0  0  0  0  0  0  0
    0.3185   -0.3895    1.7708 C   0  0  0  0  0  0  0  0  0  0  0  0
   -0.6195    0.2212    0.7098 C   0  0  0  0  0  0  0  0  0  0  0  0
   -1.1235    1.6277    1.0730 N   0  0  0  0  0  0  0  0  0  0  0  0
   -1.4798    2.4413   -0.1853 C   0  0  0  0  0  0  0  0  0  0  0  0
   -2.6145    1.8348   -1.0058 C   0  0  0  0  0  0  0  0  0  0  0  0
   -1.7186    3.9111    0.1376 C   0  0  0  0  0  0  0  0  0  0  0  0
   -2.0169    1.6392    2.3201 C   0  0  0  0  0  0  0  0  0  0  0  0
   -3.4884    1.4035    2.0198 C   0  0  0  0  0  0  0  0  0  0  0  0
   -1.7727    2.8913    3.1607 C   0  0  0  0  0  0  0  0  0  0  0  0
    3.5678   -2.6371   -0.5075 H   0  0  0  0  0  0  0  0  0  0  0  0
    5.0864   -1.7787   -0.2464 H   0  0  0  0  0  0  0  0  0  0  0  0
    4.6004   -2.2377   -1.9015 H   0  0  0  0  0  0  0  0  0  0  0  0
    2.6831   -0.6427   -1.7786 H   0  0  0  0  0  0  0  0  0  0  0  0
    4.2020    0.2134   -1.4458 H   0  0  0  0  0  0  0  0  0  0  0  0
    3.5848    2.9496    2.2081 H   0  0  0  0  0  0  0  0  0  0  0  0
    4.4410    1.4061    2.3538 H   0  0  0  0  0  0  0  0  0  0  0  0
    4.8757    2.5426    1.0661 H   0  0  0  0  0  0  0  0  0  0  0  0
   -0.2609   -0.7882    2.6076 H   0  0  0  0  0  0  0  0  0  0  0  0
    0.8525   -1.2398    1.3326 H   0  0  0  0  0  0  0  0  0  0  0  0
   -1.4979   -0.4178    0.5590 H   0  0  0  0  0  0  0  0  0  0  0  0
   -0.0821    0.3025   -0.2434 H   0  0  0  0  0  0  0  0  0  0  0  0
   -0.2465    2.0859    1.3757 H   0  0  0  0  0  0  0  0  0  0  0  0
   -0.5780    2.4006   -0.8055 H   0  0  0  0  0  0  0  0  0  0  0  0
   -2.4863    0.7603   -1.1616 H   0  0  0  0  0  0  0  0  0  0  0  0
   -3.5968    2.0028   -0.5620 H   0  0  0  0  0  0  0  0  0  0  0  0
   -2.6413    2.3011   -1.9977 H   0  0  0  0  0  0  0  0  0  0  0  0
   -2.6783    4.0735    0.6351 H   0  0  0  0  0  0  0  0  0  0  0  0
   -0.9197    4.3221    0.7636 H   0  0  0  0  0  0  0  0  0  0  0  0
   -1.7376    4.5007   -0.7862 H   0  0  0  0  0  0  0  0  0  0  0  0
   -1.6797    0.7970    2.9333 H   0  0  0  0  0  0  0  0  0  0  0  0
   -4.0296    1.1864    2.9487 H   0  0  0  0  0  0  0  0  0  0  0  0
   -3.9613    2.2855    1.5822 H   0  0  0  0  0  0  0  0  0  0  0  0
   -3.6344    0.5447    1.3562 H   0  0  0  0  0  0  0  0  0  0  0  0
   -2.3430    3.7549    2.8047 H   0  0  0  0  0  0  0  0  0  0  0  0
   -2.0828    2.7126    4.1962 H   0  0  0  0  0  0  0  0  0  0  0  0
   -0.7147    3.1656    3.1819 H   0  0  0  0  0  0  0  0  0  0  0  0
    3.8832    1.8371   -0.9403 O   0  0  0  0  0  0  0  0  0  0  0  0
    4.7538    2.2316   -0.6823 H   0  0  0  0  0  0  0  0  0  0  0  0
  1  2  1  0
  2  3  1  0
  4  3  1  1
  4  5  1  0
  4  6  2  0
  7  8  1  0
  8  9  1  0
  9 10  1  0
 10 11  1  0
 11 12  1  0
 11 13  1  0
 10 14  1  0
 14 15  1  0
 14 16  1  0
  1 17  1  0
  1 18  1  0
  1 19  1  0
  2 20  1  0
  2 21  1  0
  5 22  1  0
  5 23  1  0
  5 24  1  0
  8 25  1  0
  8 26  1  0
  9 27  1  0
  9 28  1  0
 10 29  1  0
 11 30  1  0
 12 31  1  0
 12 32  1  0
 12 33  1  0
 13 34  1  0
 13 35  1  0
 13 36  1  0
 14 37  1  0
 15 38  1  0
 15 39  1  0
 15 40  1  0
 16 41  1  0
 16 42  1  0
 16 43  1  0
 44 45  1  0
  4 44  1  0
  4  7  1  0
M  CHG  1  10   1
M  END
$$$$
