VX
     RDKit          3D

 45 44  0  0  0  0  0  0  0  0999 V2000
    3.1659    2.4656    0.8739 C   0  0  0  0  0  0  0  0  0  0  0  0
    3.9156    1.1514    0.9502 C   0  0  0  0  0  0  0  0  0  0  0  0
    2.9919    0.0695    0.9858 O   0  0  0  0  0  0  0  0  0  0  0  0
    2.6872   -0.7351   -0.3852 P   0  0  0  0  0  0  0  0  0  0  0  0
    3.5463   -2.2697   -0.6802 C   0  0  0  0  0  0  0  0  0  0  0  0
    1.7088   -0.2180   -1.3956 O   0  0  0  0  0  0  0  0  0  0  0  0
    0.9505   -1.9146    0.6929 S   0  0  0  0  0  0  0  0  0  0  0  0
    0.9522   -1.2910    2.3950 C   0  0  0  0  0  0  0  0  0  0  0  0
    0.1775    0.0309    2.5474 C   0  0  0  0  0  0  0  0  0  0  0  0
   -1.1986    0.0105    1.8499 N   0  0  0  0  0  0  0  0  0  0  0  0
   -1.4978    1.3157    1.0742 C   0  0  0  0  0  0  0  0  0  0  0  0
   -0.5629    1.4623   -0.1217 C   0  0  0  0  0  0  0  0  0  0  0  0
   -1.4679    2.5357    1.9914 C   0  0  0  0  0  0  0  0  0  0  0  0
   -2.3619   -0.4313    2.7722 C   0  0  0  0  0  0  0  0  0  0  0  0
   -3.6713   -0.5442    1.9851 C   0  0  0  0  0  0  0  0  0  0  0  0
   -2.0734   -1.7867    3.4169 C   0  0  0  0  0  0  0  0  0  0  0  0
    3.8558    3.3096    0.9435 H   0  0  0  0  0  0  0  0  0  0  0  0
    2.6208    2.5454   -0.0725 H   0  0  0  0  0  0  0  0  0  0  0  0
    2.4293    2.5439    1.6775 H   0  0  0  0  0  0  0  0  0  0  0  0
    4.5027    1.1124    1.8739 H   0  0  0  0  0  0  0  0  0  0  0  0
    4.6073    1.0551    0.1086 H   0  0  0  0  0  0  0  0  0  0  0  0
    2.9326   -2.9339   -1.2965 H   0  0  0  0  0  0  0  0  0  0  0  0
    3.7586   -2.7805    0.2640 H   0  0  0  0  0  0  0  0  0  0  0  0
    4.4943   -2.1074   -1.2034 H   0  0  0  0  0  0  0  0  0  0  0  0
    1.9842   -1.1568    2.7361 H   0  0  0  0  0  0  0  0  0  0  0  0
    0.5315   -2.0730    3.0279 H   0  0  0  0  0  0  0  0  0  0  0  0
    0.7736    0.8366    2.1091 H   0  0  0  0  0  0  0  0  0  0  0  0
    0.0121    0.2826    3.6016 H   0  0  0  0  0  0  0  0  0  0  0  0
   -1.1168   -0.7184    1.1191 H   0  0  0  0  0  0  0  0  0  0  0  0
   -2.4978    1.2090    0.6506 H   0  0  0  0  0  0  0  0  0  0  0  0
   -0.8656    2.3185   -0.7327 H   0  0  0  0  0  0  0  0  0  0  0  0
   -0.6096    0.5749   -0.7612 H   0  0  0  0  0  0  0  0  0  0  0  0
    0.4733    1.6341    0.1728 H   0  0  0  0  0  0  0  0  0  0  0  0
   -0.4794    2.7005    2.4310 H   0  0  0  0  0  0  0  0  0  0  0  0
   -1.7251    3.4377    1.4267 H   0  0  0  0  0  0  0  0  0  0  0  0
   -2.1912    2.4446    2.8077 H   0  0  0  0  0  0  0  0  0  0  0  0
   -2.4568    0.3305    3.5541 H   0  0  0  0  0  0  0  0  0  0  0  0
   -4.4466   -1.0302    2.5864 H   0  0  0  0  0  0  0  0  0  0  0  0
   -3.5419   -1.1314    1.0699 H   0  0  0  0  0  0  0  0  0  0  0  0
   -4.0736    0.4384    1.7225 H   0  0  0  0  0  0  0  0  0  0  0  0
   -1.8130   -2.5412    2.6678 H   0  0  0  0  0  0  0  0  0  0  0  0
   -1.2677   -1.7198    4.1532 H   0  0  0  0  0  0  0  0  0  0  0  0
   -2.9493   -2.1558    3.9622 H   0  0  0  0  0  0  0  0  0  0  0  0
    4.0854    0.2145   -1.2532 O   0  0  0  0  0  0  0  0  0  0  0  0
    4.7052    0.6354   -0.6060 H   0  0  0  0  0  0  0  0  0  0  0  0
  1  2  1  0
  2  3  1  0
  4  3  1  1
  4  5  1  0
  4  6  2  0
  7  8  1  0
  8  9  1  0
  9 10  1  0
 10 11  1  0
 11 12  1  0
 11 13  1  0
 10 14  1  0
 14 15  1  0
 14 16  1  0
  1 17  1  0
  1 18  1  0
  1 19  1  0
  2 20  1  0
  2 21  1  0
  5 22  1  0
  5 23  1  0
  5 24  1  0
  8 25  1  0
  8 26  1  0
  9 27  1  0
  9 28  1  0
 10 29  1  0
 11 30  1  0
 12 31  1  0
 12 32  1  0
 12 33  1  0
 13 34  1  0
 13 35  1  0
 13 36  1  0
 14 37  1  0
 15 38  1  0
 15 39  1  0
 15 40  1  0
 16 41  1  0
 16 42  1  0
 16 43  1  0
 44 45  1  0
  4 44  1  0
  4  7  1  0
M  CHG  1  10   1
M  END
$$$$
