VX
     RDKit          3D

 45 44  0  0  0  0  0  0  0  0999 V2000
    3.2271    0.2681    3.3416 C   0  0  0  0  0  0  0  0  0  0  0  0
    3.5066   -0.5808    2.1187 C   0  0  0  0  0  0  0  0  0  0  0  0
    2.9805    0.0806    0.9796 O   0  0  0  0  0  0  0  0  0  0  0  0
    2.6963   -0.7433   -0.3795 P   0  0  0  0  0  0  0  0  0  0  0  0
    3.5468   -2.2780   -0.6885 C   0  0  0  0  0  0  0  0  0  0  0  0
    1.7107   -0.2126   -1.3868 O   0  0  0  0  0  0  0  0  0  0  0  0
    0.9596   -1.9228    0.6986 S   0  0  0  0  0  0  0  0  0  0  0  0
   -0.3918   -0.7099    0.6720 C   0  0  0  0  0  0  0  0  0  0  0  0
   -1.1166   -0.7161   -0.6833 C   0  0  0  0  0  0  0  0  0  0  0  0
   -1.9665    0.5674   -0.8588 N   0  0  0  0  0  0  0  0  0  0  0  0
   -3.2697    0.3173   -1.6503 C   0  0  0  0  0  0  0  0  0  0  0  0
   -4.1312   -0.7300   -0.9262 C   0  0  0  0  0  0  0  0  0  0  0  0
   -4.1090    1.5906   -1.7602 C   0  0  0  0  0  0  0  0  0  0  0  0
   -1.0282    1.7020   -1.3517 C   0  0  0  0  0  0  0  0  0  0  0  0
   -1.4426    3.0494   -0.7670 C   0  0  0  0  0  0  0  0  0  0  0  0
   -0.8608    1.7123   -2.8669 C   0  0  0  0  0  0  0  0  0  0  0  0
    3.6754    1.2612    3.2331 H   0  0  0  0  0  0  0  0  0  0  0  0
    3.6269   -0.2031    4.2439 H   0  0  0  0  0  0  0  0  0  0  0  0
    2.1497    0.4173    3.4684 H   0  0  0  0  0  0  0  0  0  0  0  0
    4.5856   -0.7065    1.9883 H   0  0  0  0  0  0  0  0  0  0  0  0
    3.0473   -1.5667    2.2347 H   0  0  0  0  0  0  0  0  0  0  0  0
    2.9544   -2.9124   -1.3541 H   0  0  0  0  0  0  0  0  0  0  0  0
    4.5124   -2.0906   -1.1664 H   0  0  0  0  0  0  0  0  0  0  0  0
    3.7216   -2.8329    0.2373 H   0  0  0  0  0  0  0  0  0  0  0  0
   -1.1017   -0.9643    1.4661 H   0  0  0  0  0  0  0  0  0  0  0  0
    0.0263    0.2704    0.9169 H   0  0  0  0  0  0  0  0  0  0  0  0
   -0.4607   -0.7853   -1.5532 H   0  0  0  0  0  0  0  0  0  0  0  0
   -1.7749   -1.5841   -0.7152 H   0  0  0  0  0  0  0  0  0  0  0  0
   -2.2745    0.8395    0.0832 H   0  0  0  0  0  0  0  0  0  0  0  0
   -2.9842   -0.0496   -2.6418 H   0  0  0  0  0  0  0  0  0  0  0  0
   -3.7376   -1.7433   -1.0383 H   0  0  0  0  0  0  0  0  0  0  0  0
   -4.2216   -0.5073    0.1425 H   0  0  0  0  0  0  0  0  0  0  0  0
   -5.1428   -0.7614   -1.3474 H   0  0  0  0  0  0  0  0  0  0  0  0
   -3.6659    2.3237   -2.4355 H   0  0  0  0  0  0  0  0  0  0  0  0
   -4.2645    2.0562   -0.7811 H   0  0  0  0  0  0  0  0  0  0  0  0
   -5.0974    1.3674   -2.1788 H   0  0  0  0  0  0  0  0  0  0  0  0
   -0.0500    1.4876   -0.9117 H   0  0  0  0  0  0  0  0  0  0  0  0
   -2.3275    3.4747   -1.2416 H   0  0  0  0  0  0  0  0  0  0  0  0
   -0.6346    3.7767   -0.9086 H   0  0  0  0  0  0  0  0  0  0  0  0
   -1.6286    2.9752    0.3095 H   0  0  0  0  0  0  0  0  0  0  0  0
   -0.0713    2.4182   -3.1484 H   0  0  0  0  0  0  0  0  0  0  0  0
   -0.5684    0.7296   -3.2492 H   0  0  0  0  0  0  0  0  0  0  0  0
   -1.7656    2.0236   -3.3929 H   0  0  0  0  0  0  0  0  0  0  0  0
    4.0945    0.2063   -1.2475 O   0  0  0  0  0  0  0  0  0  0  0  0
    4.7143    0.6272   -0.6003 H   0  0  0  0  0  0  0  0  0  0  0  0
  1  2  1  0
  2  3  1  0
  4  3  1  1
  4  5  1  0
  4  6  2  0
  7  8  1  0
  8  9  1  0
  9 10  1  0
 10 11  1  0
 11 12  1  0
 11 13  1  0
 10 14  1  0
 14 15  1  0
 14 16  1  0
  1 17  1  0
  1 18  1  0
  1 19  1  0
  2 20  1  0
  2 21  1  0
  5 22  1  0
  5 23  1  0
  5 24  1  0
  8 25  1  0
  8 26  1  0
  9 27  1  0
  9 28  1  0
 10 29  1  0
 11 30  1  0
 12 31  1  0
 12 32  1  0
 12 33  1  0
 13 34  1  0
 13 35  1  0
 13 36  1  0
 14 37  1  0
 15 38  1  0
 15 39  1  0
 15 40  1  0
 16 41  1  0
 16 42  1  0
 16 43  1  0
 44 45  1  0
  4 44  1  0
  4  7  1  0
M  CHG  1  10   1
M  END
$$$$
