VX
     RDKit          3D

 43 42  0  0  0  0  0  0  0  0999 V2000
    3.6255   -2.0331   -1.1877 C   0  0  0  0  0  0  0  0  0  0  0  0
    3.5289   -0.5257   -1.0767 C   0  0  0  0  0  0  0  0  0  0  0  0
    3.0077   -0.1988    0.2031 O   0  0  0  0  0  0  0  0  0  0  0  0
    2.8310    1.3661    0.5700 P   0  0  1  0  0  0  0  0  0  0  0  0
    4.0395    2.1237    1.6393 C   0  0  0  0  0  0  0  0  0  0  0  0
    1.6867    2.1790    0.0353 O   0  0  0  0  0  0  0  0  0  0  0  0
    1.5341    0.7784    2.4521 S   0  0  0  0  0  0  0  0  0  0  0  0
   -0.0301    0.2772    1.6761 C   0  0  0  0  0  0  0  0  0  0  0  0
   -1.0733   -0.0240    2.7469 C   0  0  0  0  0  0  0  0  0  0  0  0
   -2.5050   -0.2334    2.2449 N   0  0  1  0  0  0  0  0  0  0  0  0
   -3.3948    1.0207    2.1419 C   0  0  2  0  0  0  0  0  0  0  0  0
   -2.7039    2.1994    1.4700 C   0  0  0  0  0  0  0  0  0  0  0  0
   -3.8912    1.3978    3.5399 C   0  0  0  0  0  0  0  0  0  0  0  0
   -2.7779   -1.2867    1.1661 C   0  0  1  0  0  0  0  0  0  0  0  0
   -2.4885   -0.8029   -0.2483 C   0  0  0  0  0  0  0  0  0  0  0  0
   -2.0666   -2.5966    1.4963 C   0  0  0  0  0  0  0  0  0  0  0  0
    2.6414   -2.4937   -1.0514 H   0  0  0  0  0  0  0  0  0  0  0  0
    4.2767   -2.4363   -0.4051 H   0  0  0  0  0  0  0  0  0  0  0  0
    4.0214   -2.3282   -2.1634 H   0  0  0  0  0  0  0  0  0  0  0  0
    4.5185   -0.0762   -1.1983 H   0  0  0  0  0  0  0  0  0  0  0  0
    2.8619   -0.1345   -1.8511 H   0  0  0  0  0  0  0  0  0  0  0  0
    4.4521    1.3909    2.3385 H   0  0  0  0  0  0  0  0  0  0  0  0
    3.5828    2.9313    2.2186 H   0  0  0  0  0  0  0  0  0  0  0  0
    4.8641    2.5488    1.0610 H   0  0  0  0  0  0  0  0  0  0  0  0
    0.1825   -0.6061    1.0703 H   0  0  0  0  0  0  0  0  0  0  0  0
   -0.3458    1.0803    1.0111 H   0  0  0  0  0  0  0  0  0  0  0  0
   -1.1258    0.7758    3.4930 H   0  0  0  0  0  0  0  0  0  0  0  0
   -0.8082   -0.9411    3.2867 H   0  0  0  0  0  0  0  0  0  0  0  0
   -2.9159   -0.7057    3.0614 H   0  0  0  0  0  0  0  0  0  0  0  0
   -4.2692    0.7293    1.5486 H   0  0  0  0  0  0  0  0  0  0  0  0
   -1.8669    2.5802    2.0635 H   0  0  0  0  0  0  0  0  0  0  0  0
   -3.4116    3.0282    1.3525 H   0  0  0  0  0  0  0  0  0  0  0  0
   -2.3405    1.9500    0.4705 H   0  0  0  0  0  0  0  0  0  0  0  0
   -4.4228    0.5628    4.0088 H   0  0  0  0  0  0  0  0  0  0  0  0
   -4.5902    2.2393    3.4813 H   0  0  0  0  0  0  0  0  0  0  0  0
   -3.0715    1.6946    4.2014 H   0  0  0  0  0  0  0  0  0  0  0  0
   -3.8557   -1.4830    1.2393 H   0  0  0  0  0  0  0  0  0  0  0  0
   -3.1074    0.0585   -0.5136 H   0  0  0  0  0  0  0  0  0  0  0  0
   -2.7310   -1.5932   -0.9683 H   0  0  0  0  0  0  0  0  0  0  0  0
   -1.4429   -0.5385   -0.4090 H   0  0  0  0  0  0  0  0  0  0  0  0
   -2.4066   -3.3907    0.8222 H   0  0  0  0  0  0  0  0  0  0  0  0
   -2.2869   -2.9191    2.5195 H   0  0  0  0  0  0  0  0  0  0  0  0
   -0.9816   -2.5222    1.3854 H   0  0  0  0  0  0  0  0  0  0  0  0
  1  2  1  0
  2  3  1  0
  4  3  1  6
  4  5  1  0
  4  6  2  0
  4  7  1  0
  7  8  1  0
  8  9  1  0
  9 10  1  0
 10 11  1  0
 11 12  1  0
 11 13  1  0
 10 14  1  0
 14 15  1  0
 14 16  1  0
  1 17  1  0
  1 18  1  0
  1 19  1  0
  2 20  1  0
  2 21  1  0
  5 22  1  0
  5 23  1  0
  5 24  1  0
  8 25  1  0
  8 26  1  0
  9 27  1  0
  9 28  1  0
 10 29  1  6
 11 30  1  6
 12 31  1  0
 12 32  1  0
 12 33  1  0
 13 34  1  0
 13 35  1  0
 13 36  1  0
 14 37  1  1
 15 38  1  0
 15 39  1  0
 15 40  1  0
 16 41  1  0
 16 42  1  0
 16 43  1  0
M  CHG  1  10   1
M  END
$$$$
