VX
     RDKit          3D

 43 42  0  0  0  0  0  0  0  0999 V2000
    3.9300   -2.0073   -1.0346 C   0  0  0  0  0  0  0  0  0  0  0  0
    3.5710   -0.5390   -1.0480 C   0  0  0  0  0  0  0  0  0  0  0  0
    3.0370   -0.1914    0.2256 O   0  0  0  0  0  0  0  0  0  0  0  0
    2.8117    1.3666    0.5569 P   0  0  1  0  0  0  0  0  0  0  0  0
    4.0358    2.0965    1.6283 C   0  0  0  0  0  0  0  0  0  0  0  0
    1.6804    2.1983    0.0370 O   0  0  0  0  0  0  0  0  0  0  0  0
    1.5148    0.7790    2.4390 S   0  0  0  0  0  0  0  0  0  0  0  0
    0.3825    2.1823    2.6498 C   0  0  0  0  0  0  0  0  0  0  0  0
   -1.0554    1.7344    2.3841 C   0  0  0  0  0  0  0  0  0  0  0  0
   -2.0030    2.9599    2.2768 N   0  0  2  0  0  0  0  0  0  0  0  0
   -2.9359    2.9882    3.4938 C   0  0  1  0  0  0  0  0  0  0  0  0
   -3.3381    4.4094    3.8696 C   0  0  0  0  0  0  0  0  0  0  0  0
   -4.1135    2.0376    3.3344 C   0  0  0  0  0  0  0  0  0  0  0  0
   -2.6134    3.0658    0.8601 C   0  0  2  0  0  0  0  0  0  0  0  0
   -1.4911    3.2701   -0.1604 C   0  0  0  0  0  0  0  0  0  0  0  0
   -3.5628    4.2505    0.7281 C   0  0  0  0  0  0  0  0  0  0  0  0
    4.6473   -2.1976   -0.2275 H   0  0  0  0  0  0  0  0  0  0  0  0
    4.3731   -2.3115   -1.9803 H   0  0  0  0  0  0  0  0  0  0  0  0
    3.0482   -2.6158   -0.8483 H   0  0  0  0  0  0  0  0  0  0  0  0
    4.4609    0.0545   -1.2535 H   0  0  0  0  0  0  0  0  0  0  0  0
    2.8313   -0.3241   -1.8235 H   0  0  0  0  0  0  0  0  0  0  0  0
    3.5733    2.8830    2.2355 H   0  0  0  0  0  0  0  0  0  0  0  0
    4.4414    1.3420    2.3026 H   0  0  0  0  0  0  0  0  0  0  0  0
    4.8685    2.5294    1.0682 H   0  0  0  0  0  0  0  0  0  0  0  0
    0.6674    3.0024    1.9848 H   0  0  0  0  0  0  0  0  0  0  0  0
    0.4859    2.5469    3.6776 H   0  0  0  0  0  0  0  0  0  0  0  0
   -1.1681    1.1682    1.4546 H   0  0  0  0  0  0  0  0  0  0  0  0
   -1.4125    1.0910    3.1930 H   0  0  0  0  0  0  0  0  0  0  0  0
   -1.4106    3.7953    2.3665 H   0  0  0  0  0  0  0  0  0  0  0  0
   -2.3221    2.6387    4.3378 H   0  0  0  0  0  0  0  0  0  0  0  0
   -2.4658    5.0680    3.9127 H   0  0  0  0  0  0  0  0  0  0  0  0
   -3.8137    4.4238    4.8591 H   0  0  0  0  0  0  0  0  0  0  0  0
   -4.0685    4.8402    3.1890 H   0  0  0  0  0  0  0  0  0  0  0  0
   -3.7783    1.0231    3.1128 H   0  0  0  0  0  0  0  0  0  0  0  0
   -4.7949    2.3435    2.5400 H   0  0  0  0  0  0  0  0  0  0  0  0
   -4.6970    1.9954    4.2602 H   0  0  0  0  0  0  0  0  0  0  0  0
   -3.1307    2.1270    0.6663 H   0  0  0  0  0  0  0  0  0  0  0  0
   -1.9042    3.4396   -1.1595 H   0  0  0  0  0  0  0  0  0  0  0  0
   -0.8522    2.3948   -0.2509 H   0  0  0  0  0  0  0  0  0  0  0  0
   -0.8655    4.1289    0.0988 H   0  0  0  0  0  0  0  0  0  0  0  0
   -3.8420    4.3961   -0.3242 H   0  0  0  0  0  0  0  0  0  0  0  0
   -4.5070    4.0952    1.2489 H   0  0  0  0  0  0  0  0  0  0  0  0
   -3.1092    5.1852    1.0650 H   0  0  0  0  0  0  0  0  0  0  0  0
  1  2  1  0
  2  3  1  0
  4  3  1  6
  4  5  1  0
  4  6  2  0
  4  7  1  0
  7  8  1  0
  8  9  1  0
  9 10  1  0
 10 11  1  0
 11 12  1  0
 11 13  1  0
 10 14  1  0
 14 15  1  0
 14 16  1  0
  1 17  1  0
  1 18  1  0
  1 19  1  0
  2 20  1  0
  2 21  1  0
  5 22  1  0
  5 23  1  0
  5 24  1  0
  8 25  1  0
  8 26  1  0
  9 27  1  0
  9 28  1  0
 10 29  1  1
 11 30  1  6
 12 31  1  0
 12 32  1  0
 12 33  1  0
 13 34  1  0
 13 35  1  0
 13 36  1  0
 14 37  1  6
 15 38  1  0
 15 39  1  0
 15 40  1  0
 16 41  1  0
 16 42  1  0
 16 43  1  0
M  CHG  1  10   1
M  END
$$$$
