VX
     RDKit          3D

 43 42  0  0  0  0  0  0  0  0999 V2000
    3.5501   -2.0445   -1.1983 C   0  0  0  0  0  0  0  0  0  0  0  0
    3.5580   -0.5363   -1.0585 C   0  0  0  0  0  0  0  0  0  0  0  0
    3.0076   -0.1951    0.2042 O   0  0  0  0  0  0  0  0  0  0  0  0
    2.8315    1.3648    0.5699 P   0  0  1  0  0  0  0  0  0  0  0  0
    4.0394    2.1222    1.6388 C   0  0  0  0  0  0  0  0  0  0  0  0
    1.6864    2.1781    0.0348 O   0  0  0  0  0  0  0  0  0  0  0  0
    1.5346    0.7771    2.4520 S   0  0  0  0  0  0  0  0  0  0  0  0
    0.8121    2.3268    3.0796 C   0  0  0  0  0  0  0  0  0  0  0  0
   -0.1986    2.9816    2.1263 C   0  0  0  0  0  0  0  0  0  0  0  0
   -1.1801    1.9759    1.5163 N   0  0  2  0  0  0  0  0  0  0  0  0
   -1.5716    2.3764    0.0817 C   0  0  2  0  0  0  0  0  0  0  0  0
   -2.6139    3.4874    0.0740 C   0  0  0  0  0  0  0  0  0  0  0  0
   -2.0153    1.1434   -0.7041 C   0  0  0  0  0  0  0  0  0  0  0  0
   -2.3401    1.4818    2.3950 C   0  0  1  0  0  0  0  0  0  0  0  0
   -1.9532    0.1824    3.0965 C   0  0  0  0  0  0  0  0  0  0  0  0
   -2.8297    2.5279    3.3911 C   0  0  0  0  0  0  0  0  0  0  0  0
    3.9705   -2.3499   -2.1605 H   0  0  0  0  0  0  0  0  0  0  0  0
    4.1312   -2.5094   -0.3951 H   0  0  0  0  0  0  0  0  0  0  0  0
    2.5298   -2.4338   -1.1187 H   0  0  0  0  0  0  0  0  0  0  0  0
    2.9590   -0.0822   -1.8538 H   0  0  0  0  0  0  0  0  0  0  0  0
    4.5825   -0.1590   -1.1248 H   0  0  0  0  0  0  0  0  0  0  0  0
    4.4656    1.3854    2.3255 H   0  0  0  0  0  0  0  0  0  0  0  0
    3.5795    2.9179    2.2320 H   0  0  0  0  0  0  0  0  0  0  0  0
    4.8545    2.5635    1.0590 H   0  0  0  0  0  0  0  0  0  0  0  0
    1.6227    3.0306    3.2941 H   0  0  0  0  0  0  0  0  0  0  0  0
    0.3273    2.1017    4.0341 H   0  0  0  0  0  0  0  0  0  0  0  0
    0.3409    3.4651    1.3080 H   0  0  0  0  0  0  0  0  0  0  0  0
   -0.7661    3.7754    2.6195 H   0  0  0  0  0  0  0  0  0  0  0  0
   -0.5786    1.1512    1.3597 H   0  0  0  0  0  0  0  0  0  0  0  0
   -0.6597    2.7479   -0.3957 H   0  0  0  0  0  0  0  0  0  0  0  0
   -2.2816    4.3520    0.6569 H   0  0  0  0  0  0  0  0  0  0  0  0
   -2.7876    3.8314   -0.9517 H   0  0  0  0  0  0  0  0  0  0  0  0
   -3.5781    3.1538    0.4689 H   0  0  0  0  0  0  0  0  0  0  0  0
   -2.9698    0.7408   -0.3536 H   0  0  0  0  0  0  0  0  0  0  0  0
   -1.2657    0.3471   -0.6448 H   0  0  0  0  0  0  0  0  0  0  0  0
   -2.1422    1.3990   -1.7620 H   0  0  0  0  0  0  0  0  0  0  0  0
   -3.1684    1.2446    1.7220 H   0  0  0  0  0  0  0  0  0  0  0  0
   -2.8278   -0.2509    3.5946 H   0  0  0  0  0  0  0  0  0  0  0  0
   -1.1920    0.3384    3.8648 H   0  0  0  0  0  0  0  0  0  0  0  0
   -1.5843   -0.5611    2.3822 H   0  0  0  0  0  0  0  0  0  0  0  0
   -2.0907    2.7303    4.1727 H   0  0  0  0  0  0  0  0  0  0  0  0
   -3.7341    2.1686    3.8950 H   0  0  0  0  0  0  0  0  0  0  0  0
   -3.0871    3.4706    2.9004 H   0  0  0  0  0  0  0  0  0  0  0  0
  1  2  1  0
  2  3  1  0
  4  3  1  6
  4  5  1  0
  4  6  2  0
  4  7  1  0
  7  8  1  0
  8  9  1  0
  9 10  1  0
 10 11  1  0
 11 12  1  0
 11 13  1  0
 10 14  1  0
 14 15  1  0
 14 16  1  0
  1 17  1  0
  1 18  1  0
  1 19  1  0
  2 20  1  0
  2 21  1  0
  5 22  1  0
  5 23  1  0
  5 24  1  0
  8 25  1  0
  8 26  1  0
  9 27  1  0
  9 28  1  0
 10 29  1  6
 11 30  1  6
 12 31  1  0
 12 32  1  0
 12 33  1  0
 13 34  1  0
 13 35  1  0
 13 36  1  0
 14 37  1  1
 15 38  1  0
 15 39  1  0
 15 40  1  0
 16 41  1  0
 16 42  1  0
 16 43  1  0
M  CHG  1  10   1
M  END
$$$$
