VX
     RDKit          3D

 43 42  0  0  0  0  0  0  0  0999 V2000
    4.8420   -1.6940    0.3444 C   0  0  0  0  0  0  0  0  0  0  0  0
    3.6433   -1.1055    1.0589 C   0  0  0  0  0  0  0  0  0  0  0  0
    2.9864   -0.1973    0.1889 O   0  0  0  0  0  0  0  0  0  0  0  0
    2.8448    1.3641    0.5789 P   0  0  1  0  0  0  0  0  0  0  0  0
    4.0412    2.1406    1.6457 C   0  0  0  0  0  0  0  0  0  0  0  0
    1.6925    2.1627    0.0342 O   0  0  0  0  0  0  0  0  0  0  0  0
    1.5479    0.7764    2.4610 S   0  0  0  0  0  0  0  0  0  0  0  0
   -0.1614    1.0399    1.8948 C   0  0  0  0  0  0  0  0  0  0  0  0
   -0.4987    0.1807    0.6700 C   0  0  0  0  0  0  0  0  0  0  0  0
   -2.0015    0.1969    0.3375 N   0  0  2  0  0  0  0  0  0  0  0  0
   -2.3972   -1.0588   -0.4647 C   0  0  2  0  0  0  0  0  0  0  0  0
   -1.9712   -0.9664   -1.9242 C   0  0  0  0  0  0  0  0  0  0  0  0
   -3.8926   -1.3330   -0.3056 C   0  0  0  0  0  0  0  0  0  0  0  0
   -2.5882    1.5152   -0.2044 C   0  0  1  0  0  0  0  0  0  0  0  0
   -3.1873    2.3157    0.9507 C   0  0  0  0  0  0  0  0  0  0  0  0
   -1.5990    2.3374   -1.0218 C   0  0  0  0  0  0  0  0  0  0  0  0
    4.5342   -2.1895   -0.5821 H   0  0  0  0  0  0  0  0  0  0  0  0
    5.5504   -0.9076    0.0643 H   0  0  0  0  0  0  0  0  0  0  0  0
    5.3561   -2.4210    0.9793 H   0  0  0  0  0  0  0  0  0  0  0  0
    2.9331   -1.8973    1.3160 H   0  0  0  0  0  0  0  0  0  0  0  0
    3.9518   -0.6179    1.9881 H   0  0  0  0  0  0  0  0  0  0  0  0
    4.8920    2.5045    1.0629 H   0  0  0  0  0  0  0  0  0  0  0  0
    3.5908    2.9953    2.1587 H   0  0  0  0  0  0  0  0  0  0  0  0
    4.4160    1.4527    2.4079 H   0  0  0  0  0  0  0  0  0  0  0  0
   -0.8263    0.7903    2.7279 H   0  0  0  0  0  0  0  0  0  0  0  0
   -0.2774    2.1043    1.6832 H   0  0  0  0  0  0  0  0  0  0  0  0
   -0.2527   -0.8627    0.8992 H   0  0  0  0  0  0  0  0  0  0  0  0
    0.0423    0.4613   -0.2347 H   0  0  0  0  0  0  0  0  0  0  0  0
   -2.4603    0.0445    1.2448 H   0  0  0  0  0  0  0  0  0  0  0  0
   -1.8688   -1.8947    0.0090 H   0  0  0  0  0  0  0  0  0  0  0  0
   -0.8988   -0.7718   -2.0200 H   0  0  0  0  0  0  0  0  0  0  0  0
   -2.1756   -1.9143   -2.4345 H   0  0  0  0  0  0  0  0  0  0  0  0
   -2.5146   -0.1868   -2.4662 H   0  0  0  0  0  0  0  0  0  0  0  0
   -4.1801   -1.3535    0.7509 H   0  0  0  0  0  0  0  0  0  0  0  0
   -4.1417   -2.3102   -0.7338 H   0  0  0  0  0  0  0  0  0  0  0  0
   -4.5143   -0.5912   -0.8148 H   0  0  0  0  0  0  0  0  0  0  0  0
   -3.4180    1.2435   -0.8625 H   0  0  0  0  0  0  0  0  0  0  0  0
   -3.7000    3.2054    0.5691 H   0  0  0  0  0  0  0  0  0  0  0  0
   -2.4313    2.6548    1.6625 H   0  0  0  0  0  0  0  0  0  0  0  0
   -3.9270    1.7211    1.4980 H   0  0  0  0  0  0  0  0  0  0  0  0
   -1.1308    1.7486   -1.8153 H   0  0  0  0  0  0  0  0  0  0  0  0
   -0.8131    2.7772   -0.4036 H   0  0  0  0  0  0  0  0  0  0  0  0
   -2.1208    3.1713   -1.5052 H   0  0  0  0  0  0  0  0  0  0  0  0
  1  2  1  0
  2  3  1  0
  4  3  1  6
  4  5  1  0
  4  6  2  0
  4  7  1  0
  7  8  1  0
  8  9  1  0
  9 10  1  0
 10 11  1  0
 11 12  1  0
 11 13  1  0
 10 14  1  0
 14 15  1  0
 14 16  1  0
  1 17  1  0
  1 18  1  0
  1 19  1  0
  2 20  1  0
  2 21  1  0
  5 22  1  0
  5 23  1  0
  5 24  1  0
  8 25  1  0
  8 26  1  0
  9 27  1  0
  9 28  1  0
 10 29  1  1
 11 30  1  1
 12 31  1  0
 12 32  1  0
 12 33  1  0
 13 34  1  0
 13 35  1  0
 13 36  1  0
 14 37  1  1
 15 38  1  0
 15 39  1  0
 15 40  1  0
 16 41  1  0
 16 42  1  0
 16 43  1  0
M  CHG  1  10   1
M  END
$$$$
