VX
     RDKit          3D

 43 42  0  0  0  0  0  0  0  0999 V2000
    3.2759   -1.9273   -1.4177 C   0  0  0  0  0  0  0  0  0  0  0  0
    3.7003   -0.5371   -0.9903 C   0  0  0  0  0  0  0  0  0  0  0  0
    2.9961   -0.1981    0.1953 O   0  0  0  0  0  0  0  0  0  0  0  0
    2.8386    1.3653    0.5750 P   0  0  1  0  0  0  0  0  0  0  0  0
    4.0398    2.1328    1.6424 C   0  0  0  0  0  0  0  0  0  0  0  0
    1.6904    2.1701    0.0351 O   0  0  0  0  0  0  0  0  0  0  0  0
    1.5417    0.7776    2.4571 S   0  0  0  0  0  0  0  0  0  0  0  0
    0.1293   -0.1084    1.7425 C   0  0  0  0  0  0  0  0  0  0  0  0
   -0.8498    0.8500    1.0588 C   0  0  0  0  0  0  0  0  0  0  0  0
   -2.0305    0.1267    0.3784 N   0  0  1  0  0  0  0  0  0  0  0  0
   -1.6474   -0.7726   -0.8165 C   0  0  2  0  0  0  0  0  0  0  0  0
   -0.6096   -0.0867   -1.7119 C   0  0  0  0  0  0  0  0  0  0  0  0
   -2.8811   -1.0696   -1.6715 C   0  0  0  0  0  0  0  0  0  0  0  0
   -3.0078   -0.4354    1.4322 C   0  0  1  0  0  0  0  0  0  0  0  0
   -4.4383   -0.0222    1.0932 C   0  0  0  0  0  0  0  0  0  0  0  0
   -2.8626   -1.9369    1.6533 C   0  0  0  0  0  0  0  0  0  0  0  0
    3.4749   -2.6542   -0.6229 H   0  0  0  0  0  0  0  0  0  0  0  0
    2.1984   -1.9570   -1.6130 H   0  0  0  0  0  0  0  0  0  0  0  0
    3.8072   -2.2381   -2.3218 H   0  0  0  0  0  0  0  0  0  0  0  0
    3.4771    0.1831   -1.7838 H   0  0  0  0  0  0  0  0  0  0  0  0
    4.7743   -0.5161   -0.7821 H   0  0  0  0  0  0  0  0  0  0  0  0
    4.8641    2.5567    1.0623 H   0  0  0  0  0  0  0  0  0  0  0  0
    4.4538    1.4056    2.3468 H   0  0  0  0  0  0  0  0  0  0  0  0
    3.5796    2.9423    2.2158 H   0  0  0  0  0  0  0  0  0  0  0  0
   -0.3639   -0.6302    2.5666 H   0  0  0  0  0  0  0  0  0  0  0  0
    0.5089   -0.8634    1.0493 H   0  0  0  0  0  0  0  0  0  0  0  0
   -1.2930    1.5444    1.7839 H   0  0  0  0  0  0  0  0  0  0  0  0
   -0.3912    1.4686    0.2882 H   0  0  0  0  0  0  0  0  0  0  0  0
   -2.5319    0.9122   -0.0594 H   0  0  0  0  0  0  0  0  0  0  0  0
   -1.2225   -1.6962   -0.4122 H   0  0  0  0  0  0  0  0  0  0  0  0
   -0.9397    0.9115   -2.0195 H   0  0  0  0  0  0  0  0  0  0  0  0
   -0.4354   -0.6741   -2.6208 H   0  0  0  0  0  0  0  0  0  0  0  0
    0.3611    0.0019   -1.2171 H   0  0  0  0  0  0  0  0  0  0  0  0
   -3.6004   -1.7093   -1.1581 H   0  0  0  0  0  0  0  0  0  0  0  0
   -2.5977   -1.6050   -2.5850 H   0  0  0  0  0  0  0  0  0  0  0  0
   -3.3912   -0.1479   -1.9729 H   0  0  0  0  0  0  0  0  0  0  0  0
   -2.7585    0.0647    2.3756 H   0  0  0  0  0  0  0  0  0  0  0  0
   -4.8108   -0.4884    0.1791 H   0  0  0  0  0  0  0  0  0  0  0  0
   -4.5154    1.0643    0.9761 H   0  0  0  0  0  0  0  0  0  0  0  0
   -5.1153   -0.3122    1.9046 H   0  0  0  0  0  0  0  0  0  0  0  0
   -3.4513   -2.2423    2.5263 H   0  0  0  0  0  0  0  0  0  0  0  0
   -3.2260   -2.5262    0.8085 H   0  0  0  0  0  0  0  0  0  0  0  0
   -1.8261   -2.2256    1.8471 H   0  0  0  0  0  0  0  0  0  0  0  0
  1  2  1  0
  2  3  1  0
  4  3  1  6
  4  5  1  0
  4  6  2  0
  4  7  1  0
  7  8  1  0
  8  9  1  0
  9 10  1  0
 10 11  1  0
 11 12  1  0
 11 13  1  0
 10 14  1  0
 14 15  1  0
 14 16  1  0
  1 17  1  0
  1 18  1  0
  1 19  1  0
  2 20  1  0
  2 21  1  0
  5 22  1  0
  5 23  1  0
  5 24  1  0
  8 25  1  0
  8 26  1  0
  9 27  1  0
  9 28  1  0
 10 29  1  1
 11 30  1  1
 12 31  1  0
 12 32  1  0
 12 33  1  0
 13 34  1  0
 13 35  1  0
 13 36  1  0
 14 37  1  6
 15 38  1  0
 15 39  1  0
 15 40  1  0
 16 41  1  0
 16 42  1  0
 16 43  1  0
M  CHG  1  10   1
M  END
$$$$
