VX
     RDKit          3D

 43 42  0  0  0  0  0  0  0  0999 V2000
    2.4711   -1.1009   -1.9516 C   0  0  0  0  0  0  0  0  0  0  0  0
    3.5610   -0.5398   -1.0619 C   0  0  0  0  0  0  0  0  0  0  0  0
    2.9955   -0.1974    0.1951 O   0  0  0  0  0  0  0  0  0  0  0  0
    2.8392    1.3649    0.5752 P   0  0  1  0  0  0  0  0  0  0  0  0
    4.0401    2.1331    1.6426 C   0  0  0  0  0  0  0  0  0  0  0  0
    1.6902    2.1696    0.0348 O   0  0  0  0  0  0  0  0  0  0  0  0
    1.5423    0.7772    2.4573 S   0  0  0  0  0  0  0  0  0  0  0  0
    0.1145   -0.1003    1.7658 C   0  0  0  0  0  0  0  0  0  0  0  0
   -0.6222    0.7296    0.7022 C   0  0  0  0  0  0  0  0  0  0  0  0
   -2.0260    0.1491    0.4158 N   0  0  2  0  0  0  0  0  0  0  0  0
   -2.3669    0.2506   -1.0792 C   0  0  1  0  0  0  0  0  0  0  0  0
   -3.6411   -0.5063   -1.4260 C   0  0  0  0  0  0  0  0  0  0  0  0
   -2.3704    1.6769   -1.6215 C   0  0  0  0  0  0  0  0  0  0  0  0
   -3.0314    0.5590    1.5030 C   0  0  2  0  0  0  0  0  0  0  0  0
   -3.9914   -0.5879    1.8089 C   0  0  0  0  0  0  0  0  0  0  0  0
   -3.7495    1.8679    1.2240 C   0  0  0  0  0  0  0  0  0  0  0  0
    1.9955   -1.9675   -1.4804 H   0  0  0  0  0  0  0  0  0  0  0  0
    1.6840   -0.3579   -2.1153 H   0  0  0  0  0  0  0  0  0  0  0  0
    2.8758   -1.4047   -2.9209 H   0  0  0  0  0  0  0  0  0  0  0  0
    4.0324    0.3283   -1.5340 H   0  0  0  0  0  0  0  0  0  0  0  0
    4.3345   -1.2941   -0.8891 H   0  0  0  0  0  0  0  0  0  0  0  0
    3.5794    2.9460    2.2108 H   0  0  0  0  0  0  0  0  0  0  0  0
    4.4507    1.4093    2.3516 H   0  0  0  0  0  0  0  0  0  0  0  0
    4.8684    2.5533    1.0653 H   0  0  0  0  0  0  0  0  0  0  0  0
   -0.5395   -0.3582    2.6027 H   0  0  0  0  0  0  0  0  0  0  0  0
    0.4603   -1.0414    1.3247 H   0  0  0  0  0  0  0  0  0  0  0  0
   -0.7647    1.7756    0.9903 H   0  0  0  0  0  0  0  0  0  0  0  0
   -0.0682    0.6732   -0.2386 H   0  0  0  0  0  0  0  0  0  0  0  0
   -1.9055   -0.8639    0.5444 H   0  0  0  0  0  0  0  0  0  0  0  0
   -1.5458   -0.2867   -1.5722 H   0  0  0  0  0  0  0  0  0  0  0  0
   -3.7386   -0.5959   -2.5139 H   0  0  0  0  0  0  0  0  0  0  0  0
   -4.5386    0.0059   -1.0688 H   0  0  0  0  0  0  0  0  0  0  0  0
   -3.6246   -1.5221   -1.0173 H   0  0  0  0  0  0  0  0  0  0  0  0
   -2.3620    1.6497   -2.7179 H   0  0  0  0  0  0  0  0  0  0  0  0
   -3.2631    2.2370   -1.3389 H   0  0  0  0  0  0  0  0  0  0  0  0
   -1.4906    2.2470   -1.3112 H   0  0  0  0  0  0  0  0  0  0  0  0
   -2.4373    0.7073    2.4116 H   0  0  0  0  0  0  0  0  0  0  0  0
   -4.7242   -0.7515    1.0161 H   0  0  0  0  0  0  0  0  0  0  0  0
   -3.4508   -1.5248    1.9791 H   0  0  0  0  0  0  0  0  0  0  0  0
   -4.5562   -0.3679    2.7224 H   0  0  0  0  0  0  0  0  0  0  0  0
   -4.3044    2.1840    2.1151 H   0  0  0  0  0  0  0  0  0  0  0  0
   -3.0466    2.6712    0.9842 H   0  0  0  0  0  0  0  0  0  0  0  0
   -4.4838    1.7752    0.4200 H   0  0  0  0  0  0  0  0  0  0  0  0
  1  2  1  0
  2  3  1  0
  4  3  1  6
  4  5  1  0
  4  6  2  0
  4  7  1  0
  7  8  1  0
  8  9  1  0
  9 10  1  0
 10 11  1  0
 11 12  1  0
 11 13  1  0
 10 14  1  0
 14 15  1  0
 14 16  1  0
  1 17  1  0
  1 18  1  0
  1 19  1  0
  2 20  1  0
  2 21  1  0
  5 22  1  0
  5 23  1  0
  5 24  1  0
  8 25  1  0
  8 26  1  0
  9 27  1  0
  9 28  1  0
 10 29  1  1
 11 30  1  1
 12 31  1  0
 12 32  1  0
 12 33  1  0
 13 34  1  0
 13 35  1  0
 13 36  1  0
 14 37  1  1
 15 38  1  0
 15 39  1  0
 15 40  1  0
 16 41  1  0
 16 42  1  0
 16 43  1  0
M  CHG  1  10   1
M  END
$$$$
