VX
     RDKit          3D

 43 42  0  0  0  0  0  0  0  0999 V2000
    3.6153   -2.0337   -1.1917 C   0  0  0  0  0  0  0  0  0  0  0  0
    3.5375   -0.5256   -1.0736 C   0  0  0  0  0  0  0  0  0  0  0  0
    3.0063   -0.1987    0.2022 O   0  0  0  0  0  0  0  0  0  0  0  0
    2.8319    1.3660    0.5706 P   0  0  1  0  0  0  0  0  0  0  0  0
    4.0396    2.1248    1.6397 C   0  0  0  0  0  0  0  0  0  0  0  0
    1.6871    2.1780    0.0353 O   0  0  0  0  0  0  0  0  0  0  0  0
    1.5350    0.7783    2.4527 S   0  0  0  0  0  0  0  0  0  0  0  0
   -0.0771    0.4436    1.6936 C   0  0  0  0  0  0  0  0  0  0  0  0
   -1.0944    0.0327    2.7595 C   0  0  0  0  0  0  0  0  0  0  0  0
   -2.4193   -0.4908    2.1708 N   0  0  1  0  0  0  0  0  0  0  0  0
   -3.0790    0.5234    1.1923 C   0  0  2  0  0  0  0  0  0  0  0  0
   -3.2493    1.8842    1.8774 C   0  0  0  0  0  0  0  0  0  0  0  0
   -4.4567    0.0521    0.7274 C   0  0  0  0  0  0  0  0  0  0  0  0
   -2.3876   -1.9519    1.6414 C   0  0  1  0  0  0  0  0  0  0  0  0
   -1.1380   -2.7469    2.0322 C   0  0  0  0  0  0  0  0  0  0  0  0
   -3.6007   -2.7044    2.2059 C   0  0  0  0  0  0  0  0  0  0  0  0
    4.2521   -2.4498   -0.4039 H   0  0  0  0  0  0  0  0  0  0  0  0
    4.0185   -2.3289   -2.1644 H   0  0  0  0  0  0  0  0  0  0  0  0
    2.6237   -2.4818   -1.0692 H   0  0  0  0  0  0  0  0  0  0  0  0
    2.8850   -0.1215   -1.8535 H   0  0  0  0  0  0  0  0  0  0  0  0
    4.5345   -0.0891   -1.1811 H   0  0  0  0  0  0  0  0  0  0  0  0
    3.5819    2.9314    2.2196 H   0  0  0  0  0  0  0  0  0  0  0  0
    4.4536    1.3924    2.3384 H   0  0  0  0  0  0  0  0  0  0  0  0
    4.8632    2.5517    1.0615 H   0  0  0  0  0  0  0  0  0  0  0  0
    0.0507   -0.3227    0.9258 H   0  0  0  0  0  0  0  0  0  0  0  0
   -0.3980    1.3584    1.1887 H   0  0  0  0  0  0  0  0  0  0  0  0
   -0.7174   -0.7367    3.4388 H   0  0  0  0  0  0  0  0  0  0  0  0
   -1.3564    0.8826    3.3996 H   0  0  0  0  0  0  0  0  0  0  0  0
   -3.0455   -0.5166    2.9871 H   0  0  0  0  0  0  0  0  0  0  0  0
   -2.4142    0.6042    0.3259 H   0  0  0  0  0  0  0  0  0  0  0  0
   -2.2922    2.3732    2.0763 H   0  0  0  0  0  0  0  0  0  0  0  0
   -3.8155    2.5701    1.2369 H   0  0  0  0  0  0  0  0  0  0  0  0
   -3.7903    1.7887    2.8251 H   0  0  0  0  0  0  0  0  0  0  0  0
   -4.4015   -0.8637    0.1330 H   0  0  0  0  0  0  0  0  0  0  0  0
   -5.1335   -0.1074    1.5731 H   0  0  0  0  0  0  0  0  0  0  0  0
   -4.9178    0.8071    0.0798 H   0  0  0  0  0  0  0  0  0  0  0  0
   -2.4318   -1.8926    0.5490 H   0  0  0  0  0  0  0  0  0  0  0  0
   -0.2189   -2.3174    1.6306 H   0  0  0  0  0  0  0  0  0  0  0  0
   -1.0388   -2.8504    3.1178 H   0  0  0  0  0  0  0  0  0  0  0  0
   -1.2011   -3.7624    1.6225 H   0  0  0  0  0  0  0  0  0  0  0  0
   -4.5536   -2.2433    1.9447 H   0  0  0  0  0  0  0  0  0  0  0  0
   -3.6277   -3.7293    1.8190 H   0  0  0  0  0  0  0  0  0  0  0  0
   -3.5531   -2.7639    3.2994 H   0  0  0  0  0  0  0  0  0  0  0  0
  1  2  1  0
  2  3  1  0
  4  3  1  6
  4  5  1  0
  4  6  2  0
  4  7  1  0
  7  8  1  0
  8  9  1  0
  9 10  1  0
 10 11  1  0
 11 12  1  0
 11 13  1  0
 10 14  1  0
 14 15  1  0
 14 16  1  0
  1 17  1  0
  1 18  1  0
  1 19  1  0
  2 20  1  0
  2 21  1  0
  5 22  1  0
  5 23  1  0
  5 24  1  0
  8 25  1  0
  8 26  1  0
  9 27  1  0
  9 28  1  0
 10 29  1  6
 11 30  1  6
 12 31  1  0
 12 32  1  0
 12 33  1  0
 13 34  1  0
 13 35  1  0
 13 36  1  0
 14 37  1  1
 15 38  1  0
 15 39  1  0
 15 40  1  0
 16 41  1  0
 16 42  1  0
 16 43  1  0
M  CHG  1  10   1
M  END
$$$$
