VX
     RDKit          3D

 43 42  0  0  0  0  0  0  0  0999 V2000
    3.6521   -2.0359   -1.1718 C   0  0  0  0  0  0  0  0  0  0  0  0
    3.5391   -0.5289   -1.0726 C   0  0  0  0  0  0  0  0  0  0  0  0
    3.0013   -0.1980    0.1990 O   0  0  0  0  0  0  0  0  0  0  0  0
    2.8354    1.3653    0.5728 P   0  0  1  0  0  0  0  0  0  0  0  0
    4.0400    2.1286    1.6412 C   0  0  0  0  0  0  0  0  0  0  0  0
    1.6882    2.1742    0.0348 O   0  0  0  0  0  0  0  0  0  0  0  0
    1.5385    0.7776    2.4549 S   0  0  0  0  0  0  0  0  0  0  0  0
   -0.0055    0.1724    1.7247 C   0  0  0  0  0  0  0  0  0  0  0  0
   -0.9042    1.3291    1.2691 C   0  0  0  0  0  0  0  0  0  0  0  0
   -2.2148    0.7863    0.6507 N   0  0  1  0  0  0  0  0  0  0  0  0
   -3.4752    1.2696    1.3882 C   0  0  2  0  0  0  0  0  0  0  0  0
   -3.6449    2.7833    1.2965 C   0  0  0  0  0  0  0  0  0  0  0  0
   -3.4651    0.7638    2.8323 C   0  0  0  0  0  0  0  0  0  0  0  0
   -2.2388    0.9729   -0.8873 C   0  0  1  0  0  0  0  0  0  0  0  0
   -1.0955    0.1710   -1.5174 C   0  0  0  0  0  0  0  0  0  0  0  0
   -3.5612    0.4828   -1.4815 C   0  0  0  0  0  0  0  0  0  0  0  0
    2.6756   -2.5098   -1.0264 H   0  0  0  0  0  0  0  0  0  0  0  0
    4.0500   -2.3349   -2.1448 H   0  0  0  0  0  0  0  0  0  0  0  0
    4.3114   -2.4220   -0.3877 H   0  0  0  0  0  0  0  0  0  0  0  0
    2.8762   -0.1498   -1.8561 H   0  0  0  0  0  0  0  0  0  0  0  0
    4.5253   -0.0705   -1.1879 H   0  0  0  0  0  0  0  0  0  0  0  0
    4.4520    1.3982    2.3442 H   0  0  0  0  0  0  0  0  0  0  0  0
    4.8661    2.5556    1.0657 H   0  0  0  0  0  0  0  0  0  0  0  0
    3.5811    2.9363    2.2191 H   0  0  0  0  0  0  0  0  0  0  0  0
   -0.5245   -0.4217    2.4844 H   0  0  0  0  0  0  0  0  0  0  0  0
    0.2376   -0.5000    0.8977 H   0  0  0  0  0  0  0  0  0  0  0  0
   -1.1597    1.9570    2.1265 H   0  0  0  0  0  0  0  0  0  0  0  0
   -0.4456    1.9822    0.5261 H   0  0  0  0  0  0  0  0  0  0  0  0
   -2.2161   -0.2323    0.7887 H   0  0  0  0  0  0  0  0  0  0  0  0
   -4.3228    0.7782    0.9018 H   0  0  0  0  0  0  0  0  0  0  0  0
   -4.5755    3.0868    1.7894 H   0  0  0  0  0  0  0  0  0  0  0  0
   -3.7057    3.1202    0.2573 H   0  0  0  0  0  0  0  0  0  0  0  0
   -2.8312    3.3286    1.7827 H   0  0  0  0  0  0  0  0  0  0  0  0
   -2.7091    1.2580    3.4484 H   0  0  0  0  0  0  0  0  0  0  0  0
   -4.4363    0.9543    3.3027 H   0  0  0  0  0  0  0  0  0  0  0  0
   -3.2872   -0.3160    2.8694 H   0  0  0  0  0  0  0  0  0  0  0  0
   -2.1079    2.0426   -1.0851 H   0  0  0  0  0  0  0  0  0  0  0  0
   -1.1455   -0.8862   -1.2352 H   0  0  0  0  0  0  0  0  0  0  0  0
   -1.1435    0.2259   -2.6100 H   0  0  0  0  0  0  0  0  0  0  0  0
   -0.1131    0.5553   -1.2298 H   0  0  0  0  0  0  0  0  0  0  0  0
   -4.3933    1.1427   -1.2177 H   0  0  0  0  0  0  0  0  0  0  0  0
   -3.5134    0.4725   -2.5763 H   0  0  0  0  0  0  0  0  0  0  0  0
   -3.7996   -0.5337   -1.1489 H   0  0  0  0  0  0  0  0  0  0  0  0
  1  2  1  0
  2  3  1  0
  4  3  1  6
  4  5  1  0
  4  6  2  0
  4  7  1  0
  7  8  1  0
  8  9  1  0
  9 10  1  0
 10 11  1  0
 11 12  1  0
 11 13  1  0
 10 14  1  0
 14 15  1  0
 14 16  1  0
  1 17  1  0
  1 18  1  0
  1 19  1  0
  2 20  1  0
  2 21  1  0
  5 22  1  0
  5 23  1  0
  5 24  1  0
  8 25  1  0
  8 26  1  0
  9 27  1  0
  9 28  1  0
 10 29  1  1
 11 30  1  6
 12 31  1  0
 12 32  1  0
 12 33  1  0
 13 34  1  0
 13 35  1  0
 13 36  1  0
 14 37  1  6
 15 38  1  0
 15 39  1  0
 15 40  1  0
 16 41  1  0
 16 42  1  0
 16 43  1  0
M  CHG  1  10   1
M  END
$$$$
