VX
     RDKit          3D

 43 42  0  0  0  0  0  0  0  0999 V2000
    3.9836   -1.9447   -1.0969 C   0  0  0  0  0  0  0  0  0  0  0  0
    3.4528   -0.5261   -1.1050 C   0  0  0  0  0  0  0  0  0  0  0  0
    3.0090   -0.1984    0.2041 O   0  0  0  0  0  0  0  0  0  0  0  0
    2.8304    1.3658    0.5695 P   0  0  1  0  0  0  0  0  0  0  0  0
    4.0399    2.1225    1.6392 C   0  0  0  0  0  0  0  0  0  0  0  0
    1.6856    2.1802    0.0349 O   0  0  0  0  0  0  0  0  0  0  0  0
    1.5335    0.7781    2.4516 S   0  0  0  0  0  0  0  0  0  0  0  0
   -0.1250    0.6515    1.7303 C   0  0  0  0  0  0  0  0  0  0  0  0
   -1.1294    0.1438    2.7664 C   0  0  0  0  0  0  0  0  0  0  0  0
   -2.5815    0.3144    2.2919 N   0  0  2  0  0  0  0  0  0  0  0  0
   -3.6181    0.3093    3.4333 C   0  0  1  0  0  0  0  0  0  0  0  0
   -3.2942   -0.7074    4.5255 C   0  0  0  0  0  0  0  0  0  0  0  0
   -3.7233    1.7223    4.0066 C   0  0  0  0  0  0  0  0  0  0  0  0
   -2.9465   -0.5340    1.0625 C   0  0  2  0  0  0  0  0  0  0  0  0
   -4.1154    0.1120    0.3192 C   0  0  0  0  0  0  0  0  0  0  0  0
   -3.2250   -1.9886    1.4157 C   0  0  0  0  0  0  0  0  0  0  0  0
    4.8421   -2.0278   -0.4228 H   0  0  0  0  0  0  0  0  0  0  0  0
    3.2229   -2.6432   -0.7299 H   0  0  0  0  0  0  0  0  0  0  0  0
    4.2936   -2.2504   -2.0991 H   0  0  0  0  0  0  0  0  0  0  0  0
    4.2418    0.1628   -1.4216 H   0  0  0  0  0  0  0  0  0  0  0  0
    2.6073   -0.4400   -1.7950 H   0  0  0  0  0  0  0  0  0  0  0  0
    4.4348    1.3939    2.3535 H   0  0  0  0  0  0  0  0  0  0  0  0
    4.8774    2.5237    1.0623 H   0  0  0  0  0  0  0  0  0  0  0  0
    3.5905    2.9459    2.2009 H   0  0  0  0  0  0  0  0  0  0  0  0
   -0.4168    1.6417    1.3663 H   0  0  0  0  0  0  0  0  0  0  0  0
   -0.0626   -0.0300    0.8788 H   0  0  0  0  0  0  0  0  0  0  0  0
   -1.0390    0.7339    3.6842 H   0  0  0  0  0  0  0  0  0  0  0  0
   -0.9766   -0.9163    2.9949 H   0  0  0  0  0  0  0  0  0  0  0  0
   -2.6075    1.2788    1.9334 H   0  0  0  0  0  0  0  0  0  0  0  0
   -4.5837    0.0554    2.9866 H   0  0  0  0  0  0  0  0  0  0  0  0
   -4.1275   -0.7708    5.2341 H   0  0  0  0  0  0  0  0  0  0  0  0
   -3.1324   -1.7106    4.1249 H   0  0  0  0  0  0  0  0  0  0  0  0
   -2.4052   -0.4316    5.1039 H   0  0  0  0  0  0  0  0  0  0  0  0
   -4.4994    1.7646    4.7788 H   0  0  0  0  0  0  0  0  0  0  0  0
   -3.9960    2.4426    3.2274 H   0  0  0  0  0  0  0  0  0  0  0  0
   -2.7834    2.0500    4.4620 H   0  0  0  0  0  0  0  0  0  0  0  0
   -2.0828   -0.4932    0.3929 H   0  0  0  0  0  0  0  0  0  0  0  0
   -4.2785   -0.3960   -0.6384 H   0  0  0  0  0  0  0  0  0  0  0  0
   -3.9133    1.1664    0.1012 H   0  0  0  0  0  0  0  0  0  0  0  0
   -5.0519    0.0514    0.8780 H   0  0  0  0  0  0  0  0  0  0  0  0
   -3.3722   -2.5738    0.5006 H   0  0  0  0  0  0  0  0  0  0  0  0
   -2.3890   -2.4419    1.9567 H   0  0  0  0  0  0  0  0  0  0  0  0
   -4.1349   -2.1007    2.0137 H   0  0  0  0  0  0  0  0  0  0  0  0
  1  2  1  0
  2  3  1  0
  4  3  1  6
  4  5  1  0
  4  6  2  0
  4  7  1  0
  7  8  1  0
  8  9  1  0
  9 10  1  0
 10 11  1  0
 11 12  1  0
 11 13  1  0
 10 14  1  0
 14 15  1  0
 14 16  1  0
  1 17  1  0
  1 18  1  0
  1 19  1  0
  2 20  1  0
  2 21  1  0
  5 22  1  0
  5 23  1  0
  5 24  1  0
  8 25  1  0
  8 26  1  0
  9 27  1  0
  9 28  1  0
 10 29  1  6
 11 30  1  1
 12 31  1  0
 12 32  1  0
 12 33  1  0
 13 34  1  0
 13 35  1  0
 13 36  1  0
 14 37  1  6
 15 38  1  0
 15 39  1  0
 15 40  1  0
 16 41  1  0
 16 42  1  0
 16 43  1  0
M  CHG  1  10   1
M  END
$$$$
