VX
     RDKit          3D

 43 42  0  0  0  0  0  0  0  0999 V2000
    4.3693   -0.2956   -1.8022 C   0  0  0  0  0  0  0  0  0  0  0  0
    3.0437   -0.6175   -1.1445 C   0  0  0  0  0  0  0  0  0  0  0  0
    3.0159   -0.1948    0.2100 O   0  0  0  0  0  0  0  0  0  0  0  0
    2.8268    1.3652    0.5668 P   0  0  1  0  0  0  0  0  0  0  0  0
    4.0387    2.1152    1.6361 C   0  0  0  0  0  0  0  0  0  0  0  0
    1.6836    2.1845    0.0349 O   0  0  0  0  0  0  0  0  0  0  0  0
    1.5299    0.7775    2.4489 S   0  0  0  0  0  0  0  0  0  0  0  0
    0.7443    2.3406    2.9534 C   0  0  0  0  0  0  0  0  0  0  0  0
   -0.7857    2.2170    2.9494 C   0  0  0  0  0  0  0  0  0  0  0  0
   -1.3343    1.7140    1.6120 N   0  0  2  0  0  0  0  0  0  0  0  0
   -1.3133    2.7658    0.4916 C   0  0  1  0  0  0  0  0  0  0  0  0
   -1.2972    2.0737   -0.8724 C   0  0  0  0  0  0  0  0  0  0  0  0
   -2.4647    3.7573    0.6021 C   0  0  0  0  0  0  0  0  0  0  0  0
   -2.6097    0.8666    1.7145 C   0  0  2  0  0  0  0  0  0  0  0  0
   -3.6116    1.4207    2.7262 C   0  0  0  0  0  0  0  0  0  0  0  0
   -2.2197   -0.5727    2.0527 C   0  0  0  0  0  0  0  0  0  0  0  0
    5.2044   -0.6586   -1.1948 H   0  0  0  0  0  0  0  0  0  0  0  0
    4.4280   -0.7496   -2.7956 H   0  0  0  0  0  0  0  0  0  0  0  0
    4.4944    0.7850   -1.9162 H   0  0  0  0  0  0  0  0  0  0  0  0
    2.8909   -1.7014   -1.1467 H   0  0  0  0  0  0  0  0  0  0  0  0
    2.2099   -0.1712   -1.6957 H   0  0  0  0  0  0  0  0  0  0  0  0
    3.5830    2.9165    2.2249 H   0  0  0  0  0  0  0  0  0  0  0  0
    4.8638    2.5466    1.0652 H   0  0  0  0  0  0  0  0  0  0  0  0
    4.4526    1.3762    2.3281 H   0  0  0  0  0  0  0  0  0  0  0  0
    1.0752    3.1535    2.3023 H   0  0  0  0  0  0  0  0  0  0  0  0
    1.0859    2.5825    3.9650 H   0  0  0  0  0  0  0  0  0  0  0  0
   -1.2667    3.1726    3.1761 H   0  0  0  0  0  0  0  0  0  0  0  0
   -1.0739    1.4925    3.7177 H   0  0  0  0  0  0  0  0  0  0  0  0
   -0.6059    1.0466    1.3113 H   0  0  0  0  0  0  0  0  0  0  0  0
   -0.3750    3.3141    0.6085 H   0  0  0  0  0  0  0  0  0  0  0  0
   -1.0562    2.7996   -1.6570 H   0  0  0  0  0  0  0  0  0  0  0  0
   -0.5473    1.2778   -0.9148 H   0  0  0  0  0  0  0  0  0  0  0  0
   -2.2670    1.6363   -1.1281 H   0  0  0  0  0  0  0  0  0  0  0  0
   -3.4342    3.2845    0.4177 H   0  0  0  0  0  0  0  0  0  0  0  0
   -2.4921    4.2424    1.5819 H   0  0  0  0  0  0  0  0  0  0  0  0
   -2.3485    4.5491   -0.1467 H   0  0  0  0  0  0  0  0  0  0  0  0
   -3.0731    0.8624    0.7244 H   0  0  0  0  0  0  0  0  0  0  0  0
   -3.8290    2.4785    2.5646 H   0  0  0  0  0  0  0  0  0  0  0  0
   -4.5601    0.8781    2.6416 H   0  0  0  0  0  0  0  0  0  0  0  0
   -3.2714    1.2992    3.7593 H   0  0  0  0  0  0  0  0  0  0  0  0
   -3.1081   -1.2131    2.0768 H   0  0  0  0  0  0  0  0  0  0  0  0
   -1.7303   -0.6462    3.0290 H   0  0  0  0  0  0  0  0  0  0  0  0
   -1.5389   -0.9826    1.2988 H   0  0  0  0  0  0  0  0  0  0  0  0
  1  2  1  0
  2  3  1  0
  4  3  1  6
  4  5  1  0
  4  6  2  0
  4  7  1  0
  7  8  1  0
  8  9  1  0
  9 10  1  0
 10 11  1  0
 11 12  1  0
 11 13  1  0
 10 14  1  0
 14 15  1  0
 14 16  1  0
  1 17  1  0
  1 18  1  0
  1 19  1  0
  2 20  1  0
  2 21  1  0
  5 22  1  0
  5 23  1  0
  5 24  1  0
  8 25  1  0
  8 26  1  0
  9 27  1  0
  9 28  1  0
 10 29  1  6
 11 30  1  6
 12 31  1  0
 12 32  1  0
 12 33  1  0
 13 34  1  0
 13 35  1  0
 13 36  1  0
 14 37  1  6
 15 38  1  0
 15 39  1  0
 15 40  1  0
 16 41  1  0
 16 42  1  0
 16 43  1  0
M  CHG  1  10   1
M  END
$$$$
