VX
     RDKit          3D

 43 42  0  0  0  0  0  0  0  0999 V2000
    2.4559   -0.9665   -2.0035 C   0  0  0  0  0  0  0  0  0  0  0  0
    3.5629   -0.5487   -1.0562 C   0  0  0  0  0  0  0  0  0  0  0  0
    2.9980   -0.1944    0.1978 O   0  0  0  0  0  0  0  0  0  0  0  0
    2.8372    1.3647    0.5738 P   0  0  1  0  0  0  0  0  0  0  0  0
    4.0388    2.1296    1.6406 C   0  0  0  0  0  0  0  0  0  0  0  0
    1.6909    2.1702    0.0355 O   0  0  0  0  0  0  0  0  0  0  0  0
    1.5403    0.7770    2.4559 S   0  0  0  0  0  0  0  0  0  0  0  0
    0.3883   -0.4706    1.8026 C   0  0  0  0  0  0  0  0  0  0  0  0
   -0.6627    0.1022    0.8365 C   0  0  0  0  0  0  0  0  0  0  0  0
   -1.2626    1.4427    1.3214 N   0  0  2  0  0  0  0  0  0  0  0  0
   -2.5328    1.2892    2.1859 C   0  0  2  0  0  0  0  0  0  0  0  0
   -2.9215    2.6151    2.8363 C   0  0  0  0  0  0  0  0  0  0  0  0
   -2.3380    0.2594    3.3001 C   0  0  0  0  0  0  0  0  0  0  0  0
   -1.3506    2.4311    0.1278 C   0  0  1  0  0  0  0  0  0  0  0  0
   -2.6677    2.3063   -0.6279 C   0  0  0  0  0  0  0  0  0  0  0  0
   -1.0236    3.8575    0.5621 C   0  0  0  0  0  0  0  0  0  0  0  0
    2.8686   -1.3106   -2.9558 H   0  0  0  0  0  0  0  0  0  0  0  0
    1.7746   -0.1315   -2.1948 H   0  0  0  0  0  0  0  0  0  0  0  0
    1.8541   -1.7703   -1.5674 H   0  0  0  0  0  0  0  0  0  0  0  0
    4.2483   -1.3856   -0.8876 H   0  0  0  0  0  0  0  0  0  0  0  0
    4.1362    0.2803   -1.4802 H   0  0  0  0  0  0  0  0  0  0  0  0
    4.4717    1.3957    2.3250 H   0  0  0  0  0  0  0  0  0  0  0  0
    3.5730    2.9186    2.2363 H   0  0  0  0  0  0  0  0  0  0  0  0
    4.8488    2.5779    1.0608 H   0  0  0  0  0  0  0  0  0  0  0  0
    0.9624   -1.2521    1.2941 H   0  0  0  0  0  0  0  0  0  0  0  0
   -0.0835   -0.9544    2.6586 H   0  0  0  0  0  0  0  0  0  0  0  0
   -0.1809    0.2644   -0.1324 H   0  0  0  0  0  0  0  0  0  0  0  0
   -1.4926   -0.5925    0.6687 H   0  0  0  0  0  0  0  0  0  0  0  0
   -0.5287    1.8345    1.9335 H   0  0  0  0  0  0  0  0  0  0  0  0
   -3.3308    0.9350    1.5245 H   0  0  0  0  0  0  0  0  0  0  0  0
   -3.3664    3.3038    2.1162 H   0  0  0  0  0  0  0  0  0  0  0  0
   -3.6854    2.4624    3.6075 H   0  0  0  0  0  0  0  0  0  0  0  0
   -2.0627    3.0996    3.3129 H   0  0  0  0  0  0  0  0  0  0  0  0
   -2.2259   -0.7532    2.9025 H   0  0  0  0  0  0  0  0  0  0  0  0
   -1.4764    0.5032    3.9312 H   0  0  0  0  0  0  0  0  0  0  0  0
   -3.2212    0.2233    3.9505 H   0  0  0  0  0  0  0  0  0  0  0  0
   -0.5578    2.1482   -0.5700 H   0  0  0  0  0  0  0  0  0  0  0  0
   -2.6232    2.8858   -1.5582 H   0  0  0  0  0  0  0  0  0  0  0  0
   -2.8719    1.2666   -0.8985 H   0  0  0  0  0  0  0  0  0  0  0  0
   -3.5170    2.6882   -0.0562 H   0  0  0  0  0  0  0  0  0  0  0  0
   -0.8826    4.4875   -0.3236 H   0  0  0  0  0  0  0  0  0  0  0  0
   -0.0938    3.8950    1.1368 H   0  0  0  0  0  0  0  0  0  0  0  0
   -1.8108    4.3258    1.1530 H   0  0  0  0  0  0  0  0  0  0  0  0
  1  2  1  0
  2  3  1  0
  4  3  1  6
  4  5  1  0
  4  6  2  0
  4  7  1  0
  7  8  1  0
  8  9  1  0
  9 10  1  0
 10 11  1  0
 11 12  1  0
 11 13  1  0
 10 14  1  0
 14 15  1  0
 14 16  1  0
  1 17  1  0
  1 18  1  0
  1 19  1  0
  2 20  1  0
  2 21  1  0
  5 22  1  0
  5 23  1  0
  5 24  1  0
  8 25  1  0
  8 26  1  0
  9 27  1  0
  9 28  1  0
 10 29  1  1
 11 30  1  6
 12 31  1  0
 12 32  1  0
 12 33  1  0
 13 34  1  0
 13 35  1  0
 13 36  1  0
 14 37  1  1
 15 38  1  0
 15 39  1  0
 15 40  1  0
 16 41  1  0
 16 42  1  0
 16 43  1  0
M  CHG  1  10   1
M  END
$$$$
