VX
     RDKit          3D

 43 42  0  0  0  0  0  0  0  0999 V2000
    2.3614   -2.3332   -0.5987 C   0  0  0  0  0  0  0  0  0  0  0  0
    2.0368   -0.8549   -0.5510 C   0  0  0  0  0  0  0  0  0  0  0  0
    3.0275   -0.1958    0.2177 O   0  0  0  0  0  0  0  0  0  0  0  0
    2.8203    1.3655    0.5625 P   0  0  1  0  0  0  0  0  0  0  0  0
    4.0388    2.1061    1.6333 C   0  0  0  0  0  0  0  0  0  0  0  0
    1.6783    2.1943    0.0343 O   0  0  0  0  0  0  0  0  0  0  0  0
    1.5234    0.7778    2.4446 S   0  0  0  0  0  0  0  0  0  0  0  0
   -0.1692    1.1503    1.9066 C   0  0  0  0  0  0  0  0  0  0  0  0
   -0.4504    2.6589    1.9875 C   0  0  0  0  0  0  0  0  0  0  0  0
   -1.7113    3.0412    1.2034 N   0  0  2  0  0  0  0  0  0  0  0  0
   -1.4733    3.0763   -0.3212 C   0  0  2  0  0  0  0  0  0  0  0  0
   -0.8322    4.3735   -0.7942 C   0  0  0  0  0  0  0  0  0  0  0  0
   -2.7907    2.7935   -1.0441 C   0  0  0  0  0  0  0  0  0  0  0  0
   -2.4909    4.2339    1.7829 C   0  0  1  0  0  0  0  0  0  0  0  0
   -3.4123    3.7182    2.8897 C   0  0  0  0  0  0  0  0  0  0  0  0
   -1.5867    5.3524    2.2980 C   0  0  0  0  0  0  0  0  0  0  0  0
    1.6181   -2.8775   -1.1878 H   0  0  0  0  0  0  0  0  0  0  0  0
    3.3505   -2.4972   -1.0389 H   0  0  0  0  0  0  0  0  0  0  0  0
    2.3889   -2.7545    0.4118 H   0  0  0  0  0  0  0  0  0  0  0  0
    1.0538   -0.6995   -0.0958 H   0  0  0  0  0  0  0  0  0  0  0  0
    2.0297   -0.4377   -1.5628 H   0  0  0  0  0  0  0  0  0  0  0  0
    4.4313    1.3715    2.3421 H   0  0  0  0  0  0  0  0  0  0  0  0
    3.6011    2.9326    2.2000 H   0  0  0  0  0  0  0  0  0  0  0  0
    4.8747    2.4971    1.0465 H   0  0  0  0  0  0  0  0  0  0  0  0
   -0.8657    0.6139    2.5599 H   0  0  0  0  0  0  0  0  0  0  0  0
   -0.3029    0.7487    0.8995 H   0  0  0  0  0  0  0  0  0  0  0  0
   -0.6321    2.9091    3.0377 H   0  0  0  0  0  0  0  0  0  0  0  0
    0.3613    3.2893    1.6172 H   0  0  0  0  0  0  0  0  0  0  0  0
   -2.3437    2.2413    1.3306 H   0  0  0  0  0  0  0  0  0  0  0  0
   -0.7983    2.2466   -0.5469 H   0  0  0  0  0  0  0  0  0  0  0  0
   -1.4999    5.2321   -0.6749 H   0  0  0  0  0  0  0  0  0  0  0  0
    0.1040    4.5805   -0.2683 H   0  0  0  0  0  0  0  0  0  0  0  0
   -0.5921    4.3032   -1.8612 H   0  0  0  0  0  0  0  0  0  0  0  0
   -3.2416    1.8599   -0.6916 H   0  0  0  0  0  0  0  0  0  0  0  0
   -3.5211    3.5968   -0.9106 H   0  0  0  0  0  0  0  0  0  0  0  0
   -2.6152    2.6880   -2.1205 H   0  0  0  0  0  0  0  0  0  0  0  0
   -3.1210    4.6240    0.9785 H   0  0  0  0  0  0  0  0  0  0  0  0
   -2.8489    3.2805    3.7200 H   0  0  0  0  0  0  0  0  0  0  0  0
   -4.0206    4.5351    3.2924 H   0  0  0  0  0  0  0  0  0  0  0  0
   -4.0981    2.9552    2.5057 H   0  0  0  0  0  0  0  0  0  0  0  0
   -1.0482    5.0680    3.2075 H   0  0  0  0  0  0  0  0  0  0  0  0
   -0.8522    5.6751    1.5578 H   0  0  0  0  0  0  0  0  0  0  0  0
   -2.1936    6.2286    2.5537 H   0  0  0  0  0  0  0  0  0  0  0  0
  1  2  1  0
  2  3  1  0
  4  3  1  6
  4  5  1  0
  4  6  2  0
  4  7  1  0
  7  8  1  0
  8  9  1  0
  9 10  1  0
 10 11  1  0
 11 12  1  0
 11 13  1  0
 10 14  1  0
 14 15  1  0
 14 16  1  0
  1 17  1  0
  1 18  1  0
  1 19  1  0
  2 20  1  0
  2 21  1  0
  5 22  1  0
  5 23  1  0
  5 24  1  0
  8 25  1  0
  8 26  1  0
  9 27  1  0
  9 28  1  0
 10 29  1  6
 11 30  1  1
 12 31  1  0
 12 32  1  0
 12 33  1  0
 13 34  1  0
 13 35  1  0
 13 36  1  0
 14 37  1  1
 15 38  1  0
 15 39  1  0
 15 40  1  0
 16 41  1  0
 16 42  1  0
 16 43  1  0
M  CHG  1  10   1
M  END
$$$$
