VX
     RDKit          3D

 43 42  0  0  0  0  0  0  0  0999 V2000
    3.3827   -2.0065   -1.3024 C   0  0  0  0  0  0  0  0  0  0  0  0
    3.6185   -0.5348   -1.0335 C   0  0  0  0  0  0  0  0  0  0  0  0
    3.0000   -0.1964    0.1986 O   0  0  0  0  0  0  0  0  0  0  0  0
    2.8360    1.3651    0.5731 P   0  0  1  0  0  0  0  0  0  0  0  0
    4.0395    2.1289    1.6409 C   0  0  0  0  0  0  0  0  0  0  0  0
    1.6894    2.1725    0.0352 O   0  0  0  0  0  0  0  0  0  0  0  0
    1.5391    0.7774    2.4552 S   0  0  0  0  0  0  0  0  0  0  0  0
    0.3406    2.1410    2.6166 C   0  0  0  0  0  0  0  0  0  0  0  0
   -0.7958    2.0841    1.5781 C   0  0  0  0  0  0  0  0  0  0  0  0
   -1.2708    0.6292    1.3214 N   0  0  1  0  0  0  0  0  0  0  0  0
   -2.5735    0.2849    2.0662 C   0  0  1  0  0  0  0  0  0  0  0  0
   -2.9504   -1.1852    1.8964 C   0  0  0  0  0  0  0  0  0  0  0  0
   -2.4187    0.5609    3.5659 C   0  0  0  0  0  0  0  0  0  0  0  0
   -1.1858    0.3230   -0.1892 C   0  0  1  0  0  0  0  0  0  0  0  0
   -0.8458   -1.1415   -0.4556 C   0  0  0  0  0  0  0  0  0  0  0  0
   -2.4168    0.8161   -0.9356 C   0  0  0  0  0  0  0  0  0  0  0  0
    3.8539   -2.3140   -2.2411 H   0  0  0  0  0  0  0  0  0  0  0  0
    3.7864   -2.6153   -0.4865 H   0  0  0  0  0  0  0  0  0  0  0  0
    2.3103   -2.2225   -1.3588 H   0  0  0  0  0  0  0  0  0  0  0  0
    4.6904   -0.3316   -0.9636 H   0  0  0  0  0  0  0  0  0  0  0  0
    3.1946    0.0672   -1.8427 H   0  0  0  0  0  0  0  0  0  0  0  0
    3.5855    2.9513    2.2015 H   0  0  0  0  0  0  0  0  0  0  0  0
    4.4386    1.4064    2.3588 H   0  0  0  0  0  0  0  0  0  0  0  0
    4.8745    2.5360    1.0645 H   0  0  0  0  0  0  0  0  0  0  0  0
   -0.0725    2.0830    3.6259 H   0  0  0  0  0  0  0  0  0  0  0  0
    0.8658    3.0983    2.5478 H   0  0  0  0  0  0  0  0  0  0  0  0
   -0.4713    2.5202    0.6295 H   0  0  0  0  0  0  0  0  0  0  0  0
   -1.6626    2.6741    1.8959 H   0  0  0  0  0  0  0  0  0  0  0  0
   -0.5310    0.0455    1.7466 H   0  0  0  0  0  0  0  0  0  0  0  0
   -3.3585    0.9297    1.6561 H   0  0  0  0  0  0  0  0  0  0  0  0
   -2.1019   -1.8479    2.0977 H   0  0  0  0  0  0  0  0  0  0  0  0
   -3.7555   -1.4617    2.5858 H   0  0  0  0  0  0  0  0  0  0  0  0
   -3.3360   -1.3887    0.8961 H   0  0  0  0  0  0  0  0  0  0  0  0
   -1.5590    0.0268    3.9843 H   0  0  0  0  0  0  0  0  0  0  0  0
   -3.3107    0.2356    4.1126 H   0  0  0  0  0  0  0  0  0  0  0  0
   -2.3084    1.6265    3.7794 H   0  0  0  0  0  0  0  0  0  0  0  0
   -0.3195    0.8806   -0.5578 H   0  0  0  0  0  0  0  0  0  0  0  0
   -0.4811   -1.2505   -1.4832 H   0  0  0  0  0  0  0  0  0  0  0  0
   -1.7038   -1.8089   -0.3640 H   0  0  0  0  0  0  0  0  0  0  0  0
   -0.0509   -1.4983    0.2088 H   0  0  0  0  0  0  0  0  0  0  0  0
   -2.2611    0.7237   -2.0171 H   0  0  0  0  0  0  0  0  0  0  0  0
   -2.6166    1.8720   -0.7198 H   0  0  0  0  0  0  0  0  0  0  0  0
   -3.3149    0.2404   -0.6904 H   0  0  0  0  0  0  0  0  0  0  0  0
  1  2  1  0
  2  3  1  0
  4  3  1  6
  4  5  1  0
  4  6  2  0
  4  7  1  0
  7  8  1  0
  8  9  1  0
  9 10  1  0
 10 11  1  0
 11 12  1  0
 11 13  1  0
 10 14  1  0
 14 15  1  0
 14 16  1  0
  1 17  1  0
  1 18  1  0
  1 19  1  0
  2 20  1  0
  2 21  1  0
  5 22  1  0
  5 23  1  0
  5 24  1  0
  8 25  1  0
  8 26  1  0
  9 27  1  0
  9 28  1  0
 10 29  1  6
 11 30  1  1
 12 31  1  0
 12 32  1  0
 12 33  1  0
 13 34  1  0
 13 35  1  0
 13 36  1  0
 14 37  1  1
 15 38  1  0
 15 39  1  0
 15 40  1  0
 16 41  1  0
 16 42  1  0
 16 43  1  0
M  CHG  1  10   1
M  END
$$$$
