VX
     RDKit          3D

 43 42  0  0  0  0  0  0  0  0999 V2000
    3.6611   -1.9950   -1.2501 C   0  0  0  0  0  0  0  0  0  0  0  0
    3.8744   -0.5418   -0.8729 C   0  0  0  0  0  0  0  0  0  0  0  0
    3.0132   -0.1959    0.2078 O   0  0  0  0  0  0  0  0  0  0  0  0
    2.8290    1.3634    0.5677 P   0  0  1  0  0  0  0  0  0  0  0  0
    4.0429    2.1186    1.6400 C   0  0  0  0  0  0  0  0  0  0  0  0
    1.6798    2.1840    0.0322 O   0  0  0  0  0  0  0  0  0  0  0  0
    1.5321    0.7757    2.4498 S   0  0  0  0  0  0  0  0  0  0  0  0
    0.6114    2.3253    2.7619 C   0  0  0  0  0  0  0  0  0  0  0  0
   -0.7157    2.3430    1.9807 C   0  0  0  0  0  0  0  0  0  0  0  0
   -1.5280    1.0538    2.1895 N   0  0  2  0  0  0  0  0  0  0  0  0
   -2.5487    0.7476    1.0801 C   0  0  1  0  0  0  0  0  0  0  0  0
   -3.2376    2.0028    0.5532 C   0  0  0  0  0  0  0  0  0  0  0  0
   -1.8439   -0.0218   -0.0429 C   0  0  0  0  0  0  0  0  0  0  0  0
   -2.0225    0.8496    3.6295 C   0  0  2  0  0  0  0  0  0  0  0  0
   -2.2000   -0.6422    3.9087 C   0  0  0  0  0  0  0  0  0  0  0  0
   -3.2862    1.6539    3.9208 C   0  0  0  0  0  0  0  0  0  0  0  0
    4.3809   -2.3010   -2.0136 H   0  0  0  0  0  0  0  0  0  0  0  0
    2.6523   -2.1485   -1.6515 H   0  0  0  0  0  0  0  0  0  0  0  0
    3.7667   -2.6462   -0.3690 H   0  0  0  0  0  0  0  0  0  0  0  0
    4.9087   -0.4046   -0.5472 H   0  0  0  0  0  0  0  0  0  0  0  0
    3.6760    0.1119   -1.7328 H   0  0  0  0  0  0  0  0  0  0  0  0
    4.4784    1.3645    2.3025 H   0  0  0  0  0  0  0  0  0  0  0  0
    4.8554    2.5713    1.1005 H   0  0  0  0  0  0  0  0  0  0  0  0
    3.5705    2.8942    2.2528 H   0  0  0  0  0  0  0  0  0  0  0  0
    1.2264    3.1814    2.4729 H   0  0  0  0  0  0  0  0  0  0  0  0
    0.4402    2.4136    3.8397 H   0  0  0  0  0  0  0  0  0  0  0  0
   -0.5014    2.4207    0.8993 H   0  0  0  0  0  0  0  0  0  0  0  0
   -1.3499    3.1858    2.2822 H   0  0  0  0  0  0  0  0  0  0  0  0
   -0.7979    0.3326    2.0805 H   0  0  0  0  0  0  0  0  0  0  0  0
   -3.3048    0.0855    1.5140 H   0  0  0  0  0  0  0  0  0  0  0  0
   -3.6151    2.6302    1.3644 H   0  0  0  0  0  0  0  0  0  0  0  0
   -4.1009    1.7212   -0.0770 H   0  0  0  0  0  0  0  0  0  0  0  0
   -2.5643    2.6105   -0.0722 H   0  0  0  0  0  0  0  0  0  0  0  0
   -2.5589   -0.3093   -0.8298 H   0  0  0  0  0  0  0  0  0  0  0  0
   -1.3983   -0.9362    0.3391 H   0  0  0  0  0  0  0  0  0  0  0  0
   -1.0544    0.5662   -0.5095 H   0  0  0  0  0  0  0  0  0  0  0  0
   -1.2241    1.2007    4.2793 H   0  0  0  0  0  0  0  0  0  0  0  0
   -2.4059   -0.8152    4.9731 H   0  0  0  0  0  0  0  0  0  0  0  0
   -3.0290   -1.0791    3.3277 H   0  0  0  0  0  0  0  0  0  0  0  0
   -1.2878   -1.1948    3.6602 H   0  0  0  0  0  0  0  0  0  0  0  0
   -4.1556    1.2670    3.3782 H   0  0  0  0  0  0  0  0  0  0  0  0
   -3.5269    1.6076    4.9965 H   0  0  0  0  0  0  0  0  0  0  0  0
   -3.1575    2.7111    3.6578 H   0  0  0  0  0  0  0  0  0  0  0  0
  1  2  1  0
  2  3  1  0
  4  3  1  6
  4  5  1  0
  4  6  2  0
  4  7  1  0
  7  8  1  0
  8  9  1  0
  9 10  1  0
 10 11  1  0
 11 12  1  0
 11 13  1  0
 10 14  1  0
 14 15  1  0
 14 16  1  0
  1 17  1  0
  1 18  1  0
  1 19  1  0
  2 20  1  0
  2 21  1  0
  5 22  1  0
  5 23  1  0
  5 24  1  0
  8 25  1  0
  8 26  1  0
  9 27  1  0
  9 28  1  0
 10 29  1  6
 11 30  1  6
 12 31  1  0
 12 32  1  0
 12 33  1  0
 13 34  1  0
 13 35  1  0
 13 36  1  0
 14 37  1  1
 15 38  1  0
 15 39  1  0
 15 40  1  0
 16 41  1  0
 16 42  1  0
 16 43  1  0
M  CHG  1  10   1
M  END
$$$$
