VX
     RDKit          3D

 43 42  0  0  0  0  0  0  0  0999 V2000
    3.5963   -2.0320   -1.2018 C   0  0  0  0  0  0  0  0  0  0  0  0
    3.5169   -0.5237   -1.0836 C   0  0  0  0  0  0  0  0  0  0  0  0
    3.0067   -0.1992    0.2023 O   0  0  0  0  0  0  0  0  0  0  0  0
    2.8311    1.3666    0.5702 P   0  0  1  0  0  0  0  0  0  0  0  0
    4.0391    2.1247    1.6393 C   0  0  0  0  0  0  0  0  0  0  0  0
    1.6880    2.1780    0.0359 O   0  0  0  0  0  0  0  0  0  0  0  0
    1.5342    0.7789    2.4523 S   0  0  0  0  0  0  0  0  0  0  0  0
   -0.0960    0.4902    1.6835 C   0  0  0  0  0  0  0  0  0  0  0  0
   -1.0858   -0.0728    2.7021 C   0  0  0  0  0  0  0  0  0  0  0  0
   -0.5250   -1.3018    3.4358 N   0  0  2  0  0  0  0  0  0  0  0  0
   -0.4933   -2.6361    2.6704 C   0  0  1  0  0  0  0  0  0  0  0  0
   -1.6200   -2.7732    1.6525 C   0  0  0  0  0  0  0  0  0  0  0  0
    0.8780   -2.8375    2.0289 C   0  0  0  0  0  0  0  0  0  0  0  0
   -1.0531   -1.3858    4.8749 C   0  0  1  0  0  0  0  0  0  0  0  0
   -2.4842   -1.9050    4.9183 C   0  0  0  0  0  0  0  0  0  0  0  0
   -0.0991   -2.2067    5.7415 C   0  0  0  0  0  0  0  0  0  0  0  0
    3.9824   -2.3275   -2.1812 H   0  0  0  0  0  0  0  0  0  0  0  0
    2.6080   -2.4819   -1.0604 H   0  0  0  0  0  0  0  0  0  0  0  0
    4.2484   -2.4459   -0.4246 H   0  0  0  0  0  0  0  0  0  0  0  0
    2.8498   -0.1213   -1.8522 H   0  0  0  0  0  0  0  0  0  0  0  0
    4.5105   -0.0830   -1.2073 H   0  0  0  0  0  0  0  0  0  0  0  0
    4.4515    1.3920    2.3395 H   0  0  0  0  0  0  0  0  0  0  0  0
    3.5834    2.9340    2.2179 H   0  0  0  0  0  0  0  0  0  0  0  0
    4.8639    2.5484    1.0601 H   0  0  0  0  0  0  0  0  0  0  0  0
   -0.4735    1.4403    1.2929 H   0  0  0  0  0  0  0  0  0  0  0  0
    0.0243   -0.1886    0.8357 H   0  0  0  0  0  0  0  0  0  0  0  0
   -2.0469   -0.3345    2.2528 H   0  0  0  0  0  0  0  0  0  0  0  0
   -1.2817    0.6955    3.4596 H   0  0  0  0  0  0  0  0  0  0  0  0
    0.4651   -1.0349    3.5672 H   0  0  0  0  0  0  0  0  0  0  0  0
   -0.6155   -3.4296    3.4130 H   0  0  0  0  0  0  0  0  0  0  0  0
   -1.5034   -2.0837    0.8106 H   0  0  0  0  0  0  0  0  0  0  0  0
   -1.6258   -3.7867    1.2348 H   0  0  0  0  0  0  0  0  0  0  0  0
   -2.6006   -2.6073    2.1086 H   0  0  0  0  0  0  0  0  0  0  0  0
    0.9549   -3.8495    1.6164 H   0  0  0  0  0  0  0  0  0  0  0  0
    1.6810   -2.7239    2.7647 H   0  0  0  0  0  0  0  0  0  0  0  0
    1.0607   -2.1411    1.2070 H   0  0  0  0  0  0  0  0  0  0  0  0
   -1.0322   -0.3610    5.2640 H   0  0  0  0  0  0  0  0  0  0  0  0
   -2.8743   -1.8419    5.9407 H   0  0  0  0  0  0  0  0  0  0  0  0
   -2.5547   -2.9530    4.6098 H   0  0  0  0  0  0  0  0  0  0  0  0
   -3.1458   -1.3115    4.2798 H   0  0  0  0  0  0  0  0  0  0  0  0
   -0.3968   -2.1389    6.7938 H   0  0  0  0  0  0  0  0  0  0  0  0
    0.9258   -1.8289    5.6647 H   0  0  0  0  0  0  0  0  0  0  0  0
   -0.0926   -3.2671    5.4765 H   0  0  0  0  0  0  0  0  0  0  0  0
  1  2  1  0
  2  3  1  0
  4  3  1  6
  4  5  1  0
  4  6  2  0
  4  7  1  0
  7  8  1  0
  8  9  1  0
  9 10  1  0
 10 11  1  0
 11 12  1  0
 11 13  1  0
 10 14  1  0
 14 15  1  0
 14 16  1  0
  1 17  1  0
  1 18  1  0
  1 19  1  0
  2 20  1  0
  2 21  1  0
  5 22  1  0
  5 23  1  0
  5 24  1  0
  8 25  1  0
  8 26  1  0
  9 27  1  0
  9 28  1  0
 10 29  1  1
 11 30  1  6
 12 31  1  0
 12 32  1  0
 12 33  1  0
 13 34  1  0
 13 35  1  0
 13 36  1  0
 14 37  1  6
 15 38  1  0
 15 39  1  0
 15 40  1  0
 16 41  1  0
 16 42  1  0
 16 43  1  0
M  CHG  1  10   1
M  END
$$$$
