VX
     RDKit          3D

 43 42  0  0  0  0  0  0  0  0999 V2000
    4.4270   -0.3065   -1.7635 C   0  0  0  0  0  0  0  0  0  0  0  0
    3.0783   -0.6120   -1.1467 C   0  0  0  0  0  0  0  0  0  0  0  0
    3.0146   -0.1956    0.2089 O   0  0  0  0  0  0  0  0  0  0  0  0
    2.8271    1.3656    0.5671 P   0  0  1  0  0  0  0  0  0  0  0  0
    4.0386    2.1166    1.6364 C   0  0  0  0  0  0  0  0  0  0  0  0
    1.6847    2.1835    0.0353 O   0  0  0  0  0  0  0  0  0  0  0  0
    1.5302    0.7779    2.4492 S   0  0  0  0  0  0  0  0  0  0  0  0
    0.4195    2.2068    2.6748 C   0  0  0  0  0  0  0  0  0  0  0  0
   -0.7810    2.1689    1.7130 C   0  0  0  0  0  0  0  0  0  0  0  0
   -1.4253    0.7780    1.6555 N   0  0  1  0  0  0  0  0  0  0  0  0
   -2.1925    0.3934    2.9251 C   0  0  2  0  0  0  0  0  0  0  0  0
   -2.2086   -1.1273    3.0786 C   0  0  0  0  0  0  0  0  0  0  0  0
   -3.5934    0.9879    2.9637 C   0  0  0  0  0  0  0  0  0  0  0  0
   -2.1049    0.4368    0.3222 C   0  0  1  0  0  0  0  0  0  0  0  0
   -2.8917    1.6094   -0.2604 C   0  0  0  0  0  0  0  0  0  0  0  0
   -1.0474   -0.0652   -0.6611 C   0  0  0  0  0  0  0  0  0  0  0  0
    5.2392   -0.6747   -1.1287 H   0  0  0  0  0  0  0  0  0  0  0  0
    4.5657    0.7721   -1.8793 H   0  0  0  0  0  0  0  0  0  0  0  0
    4.5120   -0.7656   -2.7527 H   0  0  0  0  0  0  0  0  0  0  0  0
    2.9108   -1.6937   -1.1581 H   0  0  0  0  0  0  0  0  0  0  0  0
    2.2674   -0.1529   -1.7211 H   0  0  0  0  0  0  0  0  0  0  0  0
    3.5814    2.9183    2.2237 H   0  0  0  0  0  0  0  0  0  0  0  0
    4.4515    1.3785    2.3299 H   0  0  0  0  0  0  0  0  0  0  0  0
    4.8643    2.5485    1.0671 H   0  0  0  0  0  0  0  0  0  0  0  0
    0.9851    3.1333    2.5341 H   0  0  0  0  0  0  0  0  0  0  0  0
    0.0742    2.1996    3.7127 H   0  0  0  0  0  0  0  0  0  0  0  0
   -1.5523    2.8859    2.0102 H   0  0  0  0  0  0  0  0  0  0  0  0
   -0.4529    2.4187    0.7030 H   0  0  0  0  0  0  0  0  0  0  0  0
   -0.5967    0.1618    1.6866 H   0  0  0  0  0  0  0  0  0  0  0  0
   -1.6197    0.7978    3.7652 H   0  0  0  0  0  0  0  0  0  0  0  0
   -2.8132   -1.6189    2.3109 H   0  0  0  0  0  0  0  0  0  0  0  0
   -1.1957   -1.5409    3.0324 H   0  0  0  0  0  0  0  0  0  0  0  0
   -2.6321   -1.4030    4.0507 H   0  0  0  0  0  0  0  0  0  0  0  0
   -3.5742    2.0753    2.8465 H   0  0  0  0  0  0  0  0  0  0  0  0
   -4.0635    0.7756    3.9306 H   0  0  0  0  0  0  0  0  0  0  0  0
   -4.2435    0.5629    2.1929 H   0  0  0  0  0  0  0  0  0  0  0  0
   -2.7943   -0.3892    0.5186 H   0  0  0  0  0  0  0  0  0  0  0  0
   -3.4772    1.2698   -1.1224 H   0  0  0  0  0  0  0  0  0  0  0  0
   -2.2391    2.4113   -0.6194 H   0  0  0  0  0  0  0  0  0  0  0  0
   -3.5931    2.0398    0.4573 H   0  0  0  0  0  0  0  0  0  0  0  0
   -1.5200   -0.3954   -1.5924 H   0  0  0  0  0  0  0  0  0  0  0  0
   -0.3241    0.7141   -0.9167 H   0  0  0  0  0  0  0  0  0  0  0  0
   -0.4985   -0.9191   -0.2497 H   0  0  0  0  0  0  0  0  0  0  0  0
  1  2  1  0
  2  3  1  0
  4  3  1  6
  4  5  1  0
  4  6  2  0
  4  7  1  0
  7  8  1  0
  8  9  1  0
  9 10  1  0
 10 11  1  0
 11 12  1  0
 11 13  1  0
 10 14  1  0
 14 15  1  0
 14 16  1  0
  1 17  1  0
  1 18  1  0
  1 19  1  0
  2 20  1  0
  2 21  1  0
  5 22  1  0
  5 23  1  0
  5 24  1  0
  8 25  1  0
  8 26  1  0
  9 27  1  0
  9 28  1  0
 10 29  1  6
 11 30  1  1
 12 31  1  0
 12 32  1  0
 12 33  1  0
 13 34  1  0
 13 35  1  0
 13 36  1  0
 14 37  1  6
 15 38  1  0
 15 39  1  0
 15 40  1  0
 16 41  1  0
 16 42  1  0
 16 43  1  0
M  CHG  1  10   1
M  END
$$$$
