VX
     RDKit          3D

 43 42  0  0  0  0  0  0  0  0999 V2000
    3.2933   -1.9313   -1.4112 C   0  0  0  0  0  0  0  0  0  0  0  0
    3.7025   -0.5351   -0.9878 C   0  0  0  0  0  0  0  0  0  0  0  0
    3.0011   -0.1965    0.1993 O   0  0  0  0  0  0  0  0  0  0  0  0
    2.8352    1.3652    0.5726 P   0  0  1  0  0  0  0  0  0  0  0  0
    4.0394    2.1281    1.6406 C   0  0  0  0  0  0  0  0  0  0  0  0
    1.6892    2.1733    0.0353 O   0  0  0  0  0  0  0  0  0  0  0  0
    1.5383    0.7775    2.4547 S   0  0  0  0  0  0  0  0  0  0  0  0
    0.1556    1.9648    2.4194 C   0  0  0  0  0  0  0  0  0  0  0  0
   -0.9061    1.5975    1.3658 C   0  0  0  0  0  0  0  0  0  0  0  0
   -1.2690    0.0926    1.4286 N   0  0  2  0  0  0  0  0  0  0  0  0
   -1.6588   -0.4981    0.0550 C   0  0  1  0  0  0  0  0  0  0  0  0
   -0.5341   -0.2844   -0.9690 C   0  0  0  0  0  0  0  0  0  0  0  0
   -1.9002   -2.0060    0.1468 C   0  0  0  0  0  0  0  0  0  0  0  0
   -2.2134   -0.1573    2.6203 C   0  0  1  0  0  0  0  0  0  0  0  0
   -3.6813    0.0330    2.2553 C   0  0  0  0  0  0  0  0  0  0  0  0
   -1.9134   -1.4894    3.3004 C   0  0  0  0  0  0  0  0  0  0  0  0
    3.8239   -2.2344   -2.3186 H   0  0  0  0  0  0  0  0  0  0  0  0
    3.5082   -2.6561   -0.6177 H   0  0  0  0  0  0  0  0  0  0  0  0
    2.2148   -1.9771   -1.6008 H   0  0  0  0  0  0  0  0  0  0  0  0
    3.4716    0.1797   -1.7831 H   0  0  0  0  0  0  0  0  0  0  0  0
    4.7759   -0.5032   -0.7831 H   0  0  0  0  0  0  0  0  0  0  0  0
    4.4574    1.3961    2.3382 H   0  0  0  0  0  0  0  0  0  0  0  0
    3.5791    2.9314    2.2228 H   0  0  0  0  0  0  0  0  0  0  0  0
    4.8593    2.5589    1.0601 H   0  0  0  0  0  0  0  0  0  0  0  0
   -0.2878    1.9812    3.4187 H   0  0  0  0  0  0  0  0  0  0  0  0
    0.5415    2.9716    2.2298 H   0  0  0  0  0  0  0  0  0  0  0  0
   -1.8289    2.1695    1.5094 H   0  0  0  0  0  0  0  0  0  0  0  0
   -0.5378    1.8306    0.3710 H   0  0  0  0  0  0  0  0  0  0  0  0
   -0.3736   -0.3612    1.6727 H   0  0  0  0  0  0  0  0  0  0  0  0
   -2.5661    0.0206   -0.2723 H   0  0  0  0  0  0  0  0  0  0  0  0
   -0.4758    0.7521   -1.3108 H   0  0  0  0  0  0  0  0  0  0  0  0
   -0.7140   -0.8783   -1.8725 H   0  0  0  0  0  0  0  0  0  0  0  0
    0.4378   -0.5829   -0.5654 H   0  0  0  0  0  0  0  0  0  0  0  0
   -2.0307   -2.4396   -0.8530 H   0  0  0  0  0  0  0  0  0  0  0  0
   -1.0579   -2.5210    0.6191 H   0  0  0  0  0  0  0  0  0  0  0  0
   -2.8158   -2.2480    0.6889 H   0  0  0  0  0  0  0  0  0  0  0  0
   -1.9665    0.6101    3.3610 H   0  0  0  0  0  0  0  0  0  0  0  0
   -3.8547    1.0012    1.7758 H   0  0  0  0  0  0  0  0  0  0  0  0
   -4.0617   -0.7489    1.5943 H   0  0  0  0  0  0  0  0  0  0  0  0
   -4.2955    0.0033    3.1629 H   0  0  0  0  0  0  0  0  0  0  0  0
   -2.4141   -1.5273    4.2754 H   0  0  0  0  0  0  0  0  0  0  0  0
   -0.8401   -1.6133    3.4810 H   0  0  0  0  0  0  0  0  0  0  0  0
   -2.2690   -2.3536    2.7377 H   0  0  0  0  0  0  0  0  0  0  0  0
  1  2  1  0
  2  3  1  0
  4  3  1  6
  4  5  1  0
  4  6  2  0
  4  7  1  0
  7  8  1  0
  8  9  1  0
  9 10  1  0
 10 11  1  0
 11 12  1  0
 11 13  1  0
 10 14  1  0
 14 15  1  0
 14 16  1  0
  1 17  1  0
  1 18  1  0
  1 19  1  0
  2 20  1  0
  2 21  1  0
  5 22  1  0
  5 23  1  0
  5 24  1  0
  8 25  1  0
  8 26  1  0
  9 27  1  0
  9 28  1  0
 10 29  1  1
 11 30  1  1
 12 31  1  0
 12 32  1  0
 12 33  1  0
 13 34  1  0
 13 35  1  0
 13 36  1  0
 14 37  1  6
 15 38  1  0
 15 39  1  0
 15 40  1  0
 16 41  1  0
 16 42  1  0
 16 43  1  0
M  CHG  1  10   1
M  END
$$$$
