VX
     RDKit          3D

 43 42  0  0  0  0  0  0  0  0999 V2000
    4.8323   -1.7121    0.4137 C   0  0  0  0  0  0  0  0  0  0  0  0
    3.6252   -1.1001    1.0936 C   0  0  0  0  0  0  0  0  0  0  0  0
    2.9994   -0.1972    0.1979 O   0  0  0  0  0  0  0  0  0  0  0  0
    2.8362    1.3646    0.5731 P   0  0  1  0  0  0  0  0  0  0  0  0
    4.0411    2.1301    1.6424 C   0  0  0  0  0  0  0  0  0  0  0  0
    1.6882    2.1726    0.0343 O   0  0  0  0  0  0  0  0  0  0  0  0
    1.5393    0.7769    2.4552 S   0  0  0  0  0  0  0  0  0  0  0  0
   -0.1270    0.7489    1.7408 C   0  0  0  0  0  0  0  0  0  0  0  0
   -1.1719    0.3695    2.7866 C   0  0  0  0  0  0  0  0  0  0  0  0
   -2.5903    0.3967    2.1481 N   0  0  2  0  0  0  0  0  0  0  0  0
   -3.4044    1.5419    2.7784 C   0  0  2  0  0  0  0  0  0  0  0  0
   -4.0122    1.1387    4.1159 C   0  0  0  0  0  0  0  0  0  0  0  0
   -4.4136    2.1289    1.7958 C   0  0  0  0  0  0  0  0  0  0  0  0
   -3.2099   -1.0144    2.0745 C   0  0  1  0  0  0  0  0  0  0  0  0
   -4.5919   -1.0021    1.4273 C   0  0  0  0  0  0  0  0  0  0  0  0
   -2.3070   -1.9229    1.2264 C   0  0  0  0  0  0  0  0  0  0  0  0
    5.3244   -2.4356    1.0697 H   0  0  0  0  0  0  0  0  0  0  0  0
    5.5552   -0.9375    0.1381 H   0  0  0  0  0  0  0  0  0  0  0  0
    4.5390   -2.2174   -0.5125 H   0  0  0  0  0  0  0  0  0  0  0  0
    2.9008   -1.8802    1.3469 H   0  0  0  0  0  0  0  0  0  0  0  0
    3.9210   -0.6031    2.0219 H   0  0  0  0  0  0  0  0  0  0  0  0
    4.4173    1.4338    2.3962 H   0  0  0  0  0  0  0  0  0  0  0  0
    4.8900    2.4961    1.0579 H   0  0  0  0  0  0  0  0  0  0  0  0
    3.5952    2.9816    2.1646 H   0  0  0  0  0  0  0  0  0  0  0  0
   -0.3515    1.7432    1.3416 H   0  0  0  0  0  0  0  0  0  0  0  0
   -0.1349    0.0408    0.9069 H   0  0  0  0  0  0  0  0  0  0  0  0
   -1.1595    1.0759    3.6241 H   0  0  0  0  0  0  0  0  0  0  0  0
   -1.0052   -0.6255    3.2107 H   0  0  0  0  0  0  0  0  0  0  0  0
   -2.4617    0.6796    1.1664 H   0  0  0  0  0  0  0  0  0  0  0  0
   -2.6784    2.3459    2.9551 H   0  0  0  0  0  0  0  0  0  0  0  0
   -3.2554    0.7330    4.7946 H   0  0  0  0  0  0  0  0  0  0  0  0
   -4.8044    0.3935    4.0092 H   0  0  0  0  0  0  0  0  0  0  0  0
   -4.4561    2.0131    4.6046 H   0  0  0  0  0  0  0  0  0  0  0  0
   -5.3147    1.5237    1.6873 H   0  0  0  0  0  0  0  0  0  0  0  0
   -4.7460    3.1103    2.1540 H   0  0  0  0  0  0  0  0  0  0  0  0
   -3.9704    2.2771    0.8057 H   0  0  0  0  0  0  0  0  0  0  0  0
   -3.2705   -1.3934    3.1006 H   0  0  0  0  0  0  0  0  0  0  0  0
   -4.9333   -2.0248    1.2281 H   0  0  0  0  0  0  0  0  0  0  0  0
   -5.3461   -0.5628    2.0827 H   0  0  0  0  0  0  0  0  0  0  0  0
   -4.5878   -0.4662    0.4725 H   0  0  0  0  0  0  0  0  0  0  0  0
   -2.1517   -1.5061    0.2250 H   0  0  0  0  0  0  0  0  0  0  0  0
   -2.7611   -2.9134    1.1084 H   0  0  0  0  0  0  0  0  0  0  0  0
   -1.3270   -2.0870    1.6819 H   0  0  0  0  0  0  0  0  0  0  0  0
  1  2  1  0
  2  3  1  0
  4  3  1  6
  4  5  1  0
  4  6  2  0
  4  7  1  0
  7  8  1  0
  8  9  1  0
  9 10  1  0
 10 11  1  0
 11 12  1  0
 11 13  1  0
 10 14  1  0
 14 15  1  0
 14 16  1  0
  1 17  1  0
  1 18  1  0
  1 19  1  0
  2 20  1  0
  2 21  1  0
  5 22  1  0
  5 23  1  0
  5 24  1  0
  8 25  1  0
  8 26  1  0
  9 27  1  0
  9 28  1  0
 10 29  1  6
 11 30  1  1
 12 31  1  0
 12 32  1  0
 12 33  1  0
 13 34  1  0
 13 35  1  0
 13 36  1  0
 14 37  1  6
 15 38  1  0
 15 39  1  0
 15 40  1  0
 16 41  1  0
 16 42  1  0
 16 43  1  0
M  CHG  1  10   1
M  END
$$$$
