VX
     RDKit          3D

 43 42  0  0  0  0  0  0  0  0999 V2000
    4.3719   -0.2349   -1.8071 C   0  0  0  0  0  0  0  0  0  0  0  0
    3.0668   -0.6191   -1.1412 C   0  0  0  0  0  0  0  0  0  0  0  0
    3.0204   -0.1959    0.2128 O   0  0  0  0  0  0  0  0  0  0  0  0
    2.8240    1.3656    0.5650 P   0  0  1  0  0  0  0  0  0  0  0  0
    4.0388    2.1120    1.6352 C   0  0  0  0  0  0  0  0  0  0  0  0
    1.6817    2.1884    0.0348 O   0  0  0  0  0  0  0  0  0  0  0  0
    1.5271    0.7779    2.4471 S   0  0  0  0  0  0  0  0  0  0  0  0
    0.1962    2.0177    2.4400 C   0  0  0  0  0  0  0  0  0  0  0  0
   -0.8134    1.8261    1.2938 C   0  0  0  0  0  0  0  0  0  0  0  0
   -2.0761    1.0529    1.7206 N   0  0  1  0  0  0  0  0  0  0  0  0
   -3.2926    1.3085    0.8067 C   0  0  2  0  0  0  0  0  0  0  0  0
   -2.9214    1.4148   -0.6712 C   0  0  0  0  0  0  0  0  0  0  0  0
   -4.0076    2.5706    1.2916 C   0  0  0  0  0  0  0  0  0  0  0  0
   -1.8308   -0.4175    2.0909 C   0  0  1  0  0  0  0  0  0  0  0  0
   -2.9738   -0.9333    2.9680 C   0  0  0  0  0  0  0  0  0  0  0  0
   -1.6000   -1.2986    0.8717 C   0  0  0  0  0  0  0  0  0  0  0  0
    4.4550   -0.6976   -2.7950 H   0  0  0  0  0  0  0  0  0  0  0  0
    5.2278   -0.5410   -1.1966 H   0  0  0  0  0  0  0  0  0  0  0  0
    4.4389    0.8496   -1.9355 H   0  0  0  0  0  0  0  0  0  0  0  0
    2.2089   -0.2156   -1.6885 H   0  0  0  0  0  0  0  0  0  0  0  0
    2.9666   -1.7090   -1.1402 H   0  0  0  0  0  0  0  0  0  0  0  0
    3.5875    2.9168    2.2218 H   0  0  0  0  0  0  0  0  0  0  0  0
    4.4481    1.3721    2.3291 H   0  0  0  0  0  0  0  0  0  0  0  0
    4.8666    2.5377    1.0643 H   0  0  0  0  0  0  0  0  0  0  0  0
   -0.3025    2.0080    3.4141 H   0  0  0  0  0  0  0  0  0  0  0  0
    0.6783    2.9958    2.3365 H   0  0  0  0  0  0  0  0  0  0  0  0
   -1.1640    2.8215    1.0041 H   0  0  0  0  0  0  0  0  0  0  0  0
   -0.4072    1.3239    0.4137 H   0  0  0  0  0  0  0  0  0  0  0  0
   -2.3375    1.4791    2.6190 H   0  0  0  0  0  0  0  0  0  0  0  0
   -3.9781    0.4670    0.9365 H   0  0  0  0  0  0  0  0  0  0  0  0
   -2.3417    0.5564   -1.0177 H   0  0  0  0  0  0  0  0  0  0  0  0
   -3.8328    1.4577   -1.2796 H   0  0  0  0  0  0  0  0  0  0  0  0
   -2.3530    2.3239   -0.8912 H   0  0  0  0  0  0  0  0  0  0  0  0
   -4.9090    2.7515    0.6965 H   0  0  0  0  0  0  0  0  0  0  0  0
   -4.3176    2.4682    2.3372 H   0  0  0  0  0  0  0  0  0  0  0  0
   -3.3716    3.4577    1.2117 H   0  0  0  0  0  0  0  0  0  0  0  0
   -0.9399   -0.4284    2.7197 H   0  0  0  0  0  0  0  0  0  0  0  0
   -3.9068   -1.0631    2.4123 H   0  0  0  0  0  0  0  0  0  0  0  0
   -2.7121   -1.9118    3.3860 H   0  0  0  0  0  0  0  0  0  0  0  0
   -3.1636   -0.2573    3.8084 H   0  0  0  0  0  0  0  0  0  0  0  0
   -2.4980   -1.3876    0.2526 H   0  0  0  0  0  0  0  0  0  0  0  0
   -1.3313   -2.3125    1.1895 H   0  0  0  0  0  0  0  0  0  0  0  0
   -0.7807   -0.9278    0.2498 H   0  0  0  0  0  0  0  0  0  0  0  0
  1  2  1  0
  2  3  1  0
  4  3  1  6
  4  5  1  0
  4  6  2  0
  4  7  1  0
  7  8  1  0
  8  9  1  0
  9 10  1  0
 10 11  1  0
 11 12  1  0
 11 13  1  0
 10 14  1  0
 14 15  1  0
 14 16  1  0
  1 17  1  0
  1 18  1  0
  1 19  1  0
  2 20  1  0
  2 21  1  0
  5 22  1  0
  5 23  1  0
  5 24  1  0
  8 25  1  0
  8 26  1  0
  9 27  1  0
  9 28  1  0
 10 29  1  6
 11 30  1  6
 12 31  1  0
 12 32  1  0
 12 33  1  0
 13 34  1  0
 13 35  1  0
 13 36  1  0
 14 37  1  6
 15 38  1  0
 15 39  1  0
 15 40  1  0
 16 41  1  0
 16 42  1  0
 16 43  1  0
M  CHG  1  10   1
M  END
$$$$
