VX
     RDKit          3D

 43 42  0  0  0  0  0  0  0  0999 V2000
    3.6204   -2.0337   -1.1891 C   0  0  0  0  0  0  0  0  0  0  0  0
    3.5352   -0.5259   -1.0742 C   0  0  0  0  0  0  0  0  0  0  0  0
    3.0063   -0.1985    0.2023 O   0  0  0  0  0  0  0  0  0  0  0  0
    2.8319    1.3660    0.5706 P   0  0  1  0  0  0  0  0  0  0  0  0
    4.0396    2.1247    1.6397 C   0  0  0  0  0  0  0  0  0  0  0  0
    1.6871    2.1779    0.0353 O   0  0  0  0  0  0  0  0  0  0  0  0
    1.5350    0.7783    2.4527 S   0  0  0  0  0  0  0  0  0  0  0  0
   -0.0677    0.4141    1.6932 C   0  0  0  0  0  0  0  0  0  0  0  0
   -1.0949    0.0315    2.7577 C   0  0  0  0  0  0  0  0  0  0  0  0
   -2.4782   -0.2025    2.1078 N   0  0  2  0  0  0  0  0  0  0  0  0
   -3.4880    0.9087    2.4811 C   0  0  1  0  0  0  0  0  0  0  0  0
   -2.9781    2.2587    1.9650 C   0  0  0  0  0  0  0  0  0  0  0  0
   -4.8609    0.6383    1.8635 C   0  0  0  0  0  0  0  0  0  0  0  0
   -2.9927   -1.6424    2.2753 C   0  0  2  0  0  0  0  0  0  0  0  0
   -3.2619   -1.9837    3.7373 C   0  0  0  0  0  0  0  0  0  0  0  0
   -2.0297   -2.6268    1.6098 C   0  0  0  0  0  0  0  0  0  0  0  0
    4.2618   -2.4447   -0.4025 H   0  0  0  0  0  0  0  0  0  0  0  0
    2.6315   -2.4866   -1.0625 H   0  0  0  0  0  0  0  0  0  0  0  0
    4.0221   -2.3291   -2.1624 H   0  0  0  0  0  0  0  0  0  0  0  0
    4.5295   -0.0845   -1.1861 H   0  0  0  0  0  0  0  0  0  0  0  0
    2.8781   -0.1268   -1.8530 H   0  0  0  0  0  0  0  0  0  0  0  0
    3.5817    2.9307    2.2201 H   0  0  0  0  0  0  0  0  0  0  0  0
    4.4541    1.3920    2.3379 H   0  0  0  0  0  0  0  0  0  0  0  0
    4.8629    2.5522    1.0615 H   0  0  0  0  0  0  0  0  0  0  0  0
    0.0628   -0.4025    0.9760 H   0  0  0  0  0  0  0  0  0  0  0  0
   -0.3975    1.2964    1.1384 H   0  0  0  0  0  0  0  0  0  0  0  0
   -0.7898   -0.8839    3.2706 H   0  0  0  0  0  0  0  0  0  0  0  0
   -1.2123    0.8043    3.5247 H   0  0  0  0  0  0  0  0  0  0  0  0
   -2.3531   -0.0989    1.0911 H   0  0  0  0  0  0  0  0  0  0  0  0
   -3.5602    0.9237    3.5740 H   0  0  0  0  0  0  0  0  0  0  0  0
   -2.8021    2.2324    0.8841 H   0  0  0  0  0  0  0  0  0  0  0  0
   -3.7122    3.0475    2.1643 H   0  0  0  0  0  0  0  0  0  0  0  0
   -2.0506    2.5661    2.4554 H   0  0  0  0  0  0  0  0  0  0  0  0
   -5.3585   -0.2130    2.3376 H   0  0  0  0  0  0  0  0  0  0  0  0
   -4.7880    0.4475    0.7874 H   0  0  0  0  0  0  0  0  0  0  0  0
   -5.5245    1.4987    2.0063 H   0  0  0  0  0  0  0  0  0  0  0  0
   -3.9266   -1.7015    1.7089 H   0  0  0  0  0  0  0  0  0  0  0  0
   -3.9863   -1.2984    4.1866 H   0  0  0  0  0  0  0  0  0  0  0  0
   -3.6820   -2.9928    3.8145 H   0  0  0  0  0  0  0  0  0  0  0  0
   -2.3544   -1.9647    4.3473 H   0  0  0  0  0  0  0  0  0  0  0  0
   -1.0796   -2.7164    2.1443 H   0  0  0  0  0  0  0  0  0  0  0  0
   -2.4773   -3.6265    1.5805 H   0  0  0  0  0  0  0  0  0  0  0  0
   -1.8162   -2.3311    0.5772 H   0  0  0  0  0  0  0  0  0  0  0  0
  1  2  1  0
  2  3  1  0
  4  3  1  6
  4  5  1  0
  4  6  2  0
  4  7  1  0
  7  8  1  0
  8  9  1  0
  9 10  1  0
 10 11  1  0
 11 12  1  0
 11 13  1  0
 10 14  1  0
 14 15  1  0
 14 16  1  0
  1 17  1  0
  1 18  1  0
  1 19  1  0
  2 20  1  0
  2 21  1  0
  5 22  1  0
  5 23  1  0
  5 24  1  0
  8 25  1  0
  8 26  1  0
  9 27  1  0
  9 28  1  0
 10 29  1  6
 11 30  1  6
 12 31  1  0
 12 32  1  0
 12 33  1  0
 13 34  1  0
 13 35  1  0
 13 36  1  0
 14 37  1  6
 15 38  1  0
 15 39  1  0
 15 40  1  0
 16 41  1  0
 16 42  1  0
 16 43  1  0
M  CHG  1  10   1
M  END
$$$$
