VX
     RDKit          3D

 43 42  0  0  0  0  0  0  0  0999 V2000
    3.4436   -2.0106   -1.2870 C   0  0  0  0  0  0  0  0  0  0  0  0
    3.6361   -0.5301   -1.0295 C   0  0  0  0  0  0  0  0  0  0  0  0
    2.9905   -0.1982    0.1914 O   0  0  0  0  0  0  0  0  0  0  0  0
    2.8426    1.3650    0.5776 P   0  0  1  0  0  0  0  0  0  0  0  0
    4.0399    2.1373    1.6438 C   0  0  0  0  0  0  0  0  0  0  0  0
    1.6919    2.1660    0.0348 O   0  0  0  0  0  0  0  0  0  0  0  0
    1.5457    0.7773    2.4597 S   0  0  0  0  0  0  0  0  0  0  0  0
   -0.1655    0.9190    1.8576 C   0  0  0  0  0  0  0  0  0  0  0  0
   -0.4276   -0.0399    0.6892 C   0  0  0  0  0  0  0  0  0  0  0  0
   -1.8297    0.0724    0.0609 N   0  0  2  0  0  0  0  0  0  0  0  0
   -1.9654    1.1301   -1.0543 C   0  0  1  0  0  0  0  0  0  0  0  0
   -1.8537    2.5561   -0.5392 C   0  0  0  0  0  0  0  0  0  0  0  0
   -0.9927    0.8477   -2.2000 C   0  0  0  0  0  0  0  0  0  0  0  0
   -2.9892    0.0169    1.0791 C   0  0  2  0  0  0  0  0  0  0  0  0
   -2.8961   -1.2784    1.8931 C   0  0  0  0  0  0  0  0  0  0  0  0
   -4.3472    0.0501    0.3745 C   0  0  0  0  0  0  0  0  0  0  0  0
    3.8643   -2.6026   -0.4666 H   0  0  0  0  0  0  0  0  0  0  0  0
    3.9252   -2.3088   -2.2225 H   0  0  0  0  0  0  0  0  0  0  0  0
    2.3775   -2.2577   -1.3436 H   0  0  0  0  0  0  0  0  0  0  0  0
    3.2015    0.0512   -1.8491 H   0  0  0  0  0  0  0  0  0  0  0  0
    4.7024   -0.2965   -0.9514 H   0  0  0  0  0  0  0  0  0  0  0  0
    3.5742    2.9408    2.2214 H   0  0  0  0  0  0  0  0  0  0  0  0
    4.8593    2.5717    1.0650 H   0  0  0  0  0  0  0  0  0  0  0  0
    4.4613    1.4114    2.3449 H   0  0  0  0  0  0  0  0  0  0  0  0
   -0.3375    1.9615    1.5886 H   0  0  0  0  0  0  0  0  0  0  0  0
   -0.8173    0.6920    2.7050 H   0  0  0  0  0  0  0  0  0  0  0  0
   -0.3372   -1.0799    1.0245 H   0  0  0  0  0  0  0  0  0  0  0  0
    0.2930    0.0746   -0.1198 H   0  0  0  0  0  0  0  0  0  0  0  0
   -1.9226   -0.8106   -0.4597 H   0  0  0  0  0  0  0  0  0  0  0  0
   -2.9631    0.9844   -1.4773 H   0  0  0  0  0  0  0  0  0  0  0  0
   -0.8222    2.8280   -0.3044 H   0  0  0  0  0  0  0  0  0  0  0  0
   -2.4749    2.7282    0.3440 H   0  0  0  0  0  0  0  0  0  0  0  0
   -2.1906    3.2553   -1.3131 H   0  0  0  0  0  0  0  0  0  0  0  0
   -1.0231   -0.2052   -2.4982 H   0  0  0  0  0  0  0  0  0  0  0  0
    0.0388    1.1095   -1.9504 H   0  0  0  0  0  0  0  0  0  0  0  0
   -1.2662    1.4463   -3.0765 H   0  0  0  0  0  0  0  0  0  0  0  0
   -2.8943    0.8897    1.7327 H   0  0  0  0  0  0  0  0  0  0  0  0
   -3.7542   -1.3710    2.5678 H   0  0  0  0  0  0  0  0  0  0  0  0
   -2.8874   -2.1589    1.2415 H   0  0  0  0  0  0  0  0  0  0  0  0
   -2.0029   -1.3115    2.5226 H   0  0  0  0  0  0  0  0  0  0  0  0
   -4.5547    1.0345   -0.0550 H   0  0  0  0  0  0  0  0  0  0  0  0
   -5.1565   -0.1489    1.0859 H   0  0  0  0  0  0  0  0  0  0  0  0
   -4.4082   -0.7017   -0.4199 H   0  0  0  0  0  0  0  0  0  0  0  0
  1  2  1  0
  2  3  1  0
  4  3  1  6
  4  5  1  0
  4  6  2  0
  4  7  1  0
  7  8  1  0
  8  9  1  0
  9 10  1  0
 10 11  1  0
 11 12  1  0
 11 13  1  0
 10 14  1  0
 14 15  1  0
 14 16  1  0
  1 17  1  0
  1 18  1  0
  1 19  1  0
  2 20  1  0
  2 21  1  0
  5 22  1  0
  5 23  1  0
  5 24  1  0
  8 25  1  0
  8 26  1  0
  9 27  1  0
  9 28  1  0
 10 29  1  6
 11 30  1  1
 12 31  1  0
 12 32  1  0
 12 33  1  0
 13 34  1  0
 13 35  1  0
 13 36  1  0
 14 37  1  1
 15 38  1  0
 15 39  1  0
 15 40  1  0
 16 41  1  0
 16 42  1  0
 16 43  1  0
M  CHG  1  10   1
M  END
$$$$
