VX
     RDKit          3D

 43 42  0  0  0  0  0  0  0  0999 V2000
    3.5946   -2.0345   -1.1990 C   0  0  0  0  0  0  0  0  0  0  0  0
    3.5571   -0.5264   -1.0651 C   0  0  0  0  0  0  0  0  0  0  0  0
    3.0058   -0.1985    0.2018 O   0  0  0  0  0  0  0  0  0  0  0  0
    2.8323    1.3660    0.5708 P   0  0  1  0  0  0  0  0  0  0  0  0
    4.0396    2.1252    1.6398 C   0  0  0  0  0  0  0  0  0  0  0  0
    1.6873    2.1775    0.0353 O   0  0  0  0  0  0  0  0  0  0  0  0
    1.5354    0.7783    2.4529 S   0  0  0  0  0  0  0  0  0  0  0  0
   -0.0647    0.3997    1.6926 C   0  0  0  0  0  0  0  0  0  0  0  0
   -1.0993    0.0556    2.7662 C   0  0  0  0  0  0  0  0  0  0  0  0
   -2.4941   -0.1735    2.1413 N   0  0  1  0  0  0  0  0  0  0  0  0
   -2.5991   -1.5546    1.4775 C   0  0  2  0  0  0  0  0  0  0  0  0
   -3.4206   -1.4791    0.1927 C   0  0  0  0  0  0  0  0  0  0  0  0
   -3.0727   -2.6544    2.4123 C   0  0  0  0  0  0  0  0  0  0  0  0
   -3.6044    0.3733    3.0510 C   0  0  1  0  0  0  0  0  0  0  0  0
   -4.9598    0.3804    2.3583 C   0  0  0  0  0  0  0  0  0  0  0  0
   -3.6583   -0.2864    4.4262 C   0  0  0  0  0  0  0  0  0  0  0  0
    4.1975   -2.4778   -0.3994 H   0  0  0  0  0  0  0  0  0  0  0  0
    2.5875   -2.4548   -1.1087 H   0  0  0  0  0  0  0  0  0  0  0  0
    4.0156   -2.3303   -2.1641 H   0  0  0  0  0  0  0  0  0  0  0  0
    4.5686   -0.1180   -1.1427 H   0  0  0  0  0  0  0  0  0  0  0  0
    2.9364   -0.0945   -1.8563 H   0  0  0  0  0  0  0  0  0  0  0  0
    3.5814    2.9303    2.2213 H   0  0  0  0  0  0  0  0  0  0  0  0
    4.4557    1.3926    2.3373 H   0  0  0  0  0  0  0  0  0  0  0  0
    4.8619    2.5543    1.0614 H   0  0  0  0  0  0  0  0  0  0  0  0
    0.0786   -0.4244    0.9891 H   0  0  0  0  0  0  0  0  0  0  0  0
   -0.3959    1.2742    1.1235 H   0  0  0  0  0  0  0  0  0  0  0  0
   -0.8420   -0.8494    3.3270 H   0  0  0  0  0  0  0  0  0  0  0  0
   -1.1951    0.8958    3.4632 H   0  0  0  0  0  0  0  0  0  0  0  0
   -2.5185    0.4879    1.3529 H   0  0  0  0  0  0  0  0  0  0  0  0
   -1.5798   -1.8104    1.1694 H   0  0  0  0  0  0  0  0  0  0  0  0
   -3.0895   -0.6532   -0.4456 H   0  0  0  0  0  0  0  0  0  0  0  0
   -3.2981   -2.4043   -0.3821 H   0  0  0  0  0  0  0  0  0  0  0  0
   -4.4900   -1.3649    0.3794 H   0  0  0  0  0  0  0  0  0  0  0  0
   -2.4975   -2.6713    3.3426 H   0  0  0  0  0  0  0  0  0  0  0  0
   -2.9373   -3.6316    1.9342 H   0  0  0  0  0  0  0  0  0  0  0  0
   -4.1371   -2.5686    2.6453 H   0  0  0  0  0  0  0  0  0  0  0  0
   -3.3275    1.4254    3.2005 H   0  0  0  0  0  0  0  0  0  0  0  0
   -5.6743    0.9737    2.9402 H   0  0  0  0  0  0  0  0  0  0  0  0
   -5.3830   -0.6234    2.2686 H   0  0  0  0  0  0  0  0  0  0  0  0
   -4.8977    0.8323    1.3630 H   0  0  0  0  0  0  0  0  0  0  0  0
   -2.6710   -0.3833    4.8858 H   0  0  0  0  0  0  0  0  0  0  0  0
   -4.1288   -1.2711    4.4062 H   0  0  0  0  0  0  0  0  0  0  0  0
   -4.2657    0.3282    5.1013 H   0  0  0  0  0  0  0  0  0  0  0  0
  1  2  1  0
  2  3  1  0
  4  3  1  6
  4  5  1  0
  4  6  2  0
  4  7  1  0
  7  8  1  0
  8  9  1  0
  9 10  1  0
 10 11  1  0
 11 12  1  0
 11 13  1  0
 10 14  1  0
 14 15  1  0
 14 16  1  0
  1 17  1  0
  1 18  1  0
  1 19  1  0
  2 20  1  0
  2 21  1  0
  5 22  1  0
  5 23  1  0
  5 24  1  0
  8 25  1  0
  8 26  1  0
  9 27  1  0
  9 28  1  0
 10 29  1  1
 11 30  1  6
 12 31  1  0
 12 32  1  0
 12 33  1  0
 13 34  1  0
 13 35  1  0
 13 36  1  0
 14 37  1  6
 15 38  1  0
 15 39  1  0
 15 40  1  0
 16 41  1  0
 16 42  1  0
 16 43  1  0
M  CHG  1  10   1
M  END
$$$$
