VX
     RDKit          3D

 43 42  0  0  0  0  0  0  0  0999 V2000
    4.5862   -0.5242   -1.5972 C   0  0  0  0  0  0  0  0  0  0  0  0
    3.1505   -0.6093   -1.1363 C   0  0  0  0  0  0  0  0  0  0  0  0
    3.0174   -0.1916    0.2120 O   0  0  0  0  0  0  0  0  0  0  0  0
    2.8250    1.3637    0.5651 P   0  0  1  0  0  0  0  0  0  0  0  0
    4.0403    2.1133    1.6366 C   0  0  0  0  0  0  0  0  0  0  0  0
    1.6823    2.1847    0.0340 O   0  0  0  0  0  0  0  0  0  0  0  0
    1.5282    0.7760    2.4472 S   0  0  0  0  0  0  0  0  0  0  0  0
    0.1781   -0.1790    1.7013 C   0  0  0  0  0  0  0  0  0  0  0  0
   -1.1919    0.2131    2.2676 C   0  0  0  0  0  0  0  0  0  0  0  0
   -1.4804    1.7228    2.1390 N   0  0  1  0  0  0  0  0  0  0  0  0
   -2.3471    2.0857    0.9047 C   0  0  1  0  0  0  0  0  0  0  0  0
   -2.4887    3.6121    0.7679 C   0  0  0  0  0  0  0  0  0  0  0  0
   -1.7290    1.5338   -0.3769 C   0  0  0  0  0  0  0  0  0  0  0  0
   -2.0020    2.3508    3.4513 C   0  0  1  0  0  0  0  0  0  0  0  0
   -3.2734    1.6696    3.9454 C   0  0  0  0  0  0  0  0  0  0  0  0
   -0.9087    2.3658    4.5167 C   0  0  0  0  0  0  0  0  0  0  0  0
    4.8634    0.5215   -1.7745 H   0  0  0  0  0  0  0  0  0  0  0  0
    4.7209   -1.0700   -2.5377 H   0  0  0  0  0  0  0  0  0  0  0  0
    5.2749   -0.9179   -0.8498 H   0  0  0  0  0  0  0  0  0  0  0  0
    2.5030   -0.0163   -1.7908 H   0  0  0  0  0  0  0  0  0  0  0  0
    2.8026   -1.6430   -1.1928 H   0  0  0  0  0  0  0  0  0  0  0  0
    3.5733    2.8953    2.2439 H   0  0  0  0  0  0  0  0  0  0  0  0
    4.4665    1.3644    2.3126 H   0  0  0  0  0  0  0  0  0  0  0  0
    4.8461    2.5688    1.0643 H   0  0  0  0  0  0  0  0  0  0  0  0
    0.2176   -0.0445    0.6155 H   0  0  0  0  0  0  0  0  0  0  0  0
    0.3658   -1.2321    1.8966 H   0  0  0  0  0  0  0  0  0  0  0  0
   -1.2286   -0.0632    3.3252 H   0  0  0  0  0  0  0  0  0  0  0  0
   -2.0068   -0.3269    1.7712 H   0  0  0  0  0  0  0  0  0  0  0  0
   -0.5568    2.1653    1.9760 H   0  0  0  0  0  0  0  0  0  0  0  0
   -3.3299    1.6205    1.0683 H   0  0  0  0  0  0  0  0  0  0  0  0
   -1.5202    4.1159    0.9171 H   0  0  0  0  0  0  0  0  0  0  0  0
   -2.8608    3.9001   -0.2260 H   0  0  0  0  0  0  0  0  0  0  0  0
   -3.2125    4.0107    1.4862 H   0  0  0  0  0  0  0  0  0  0  0  0
   -0.6995    1.8857   -0.5144 H   0  0  0  0  0  0  0  0  0  0  0  0
   -1.7421    0.4363   -0.4043 H   0  0  0  0  0  0  0  0  0  0  0  0
   -2.3024    1.8726   -1.2494 H   0  0  0  0  0  0  0  0  0  0  0  0
   -2.2191    3.4032    3.2345 H   0  0  0  0  0  0  0  0  0  0  0  0
   -3.0944    0.6391    4.2521 H   0  0  0  0  0  0  0  0  0  0  0  0
   -3.6690    2.2000    4.8187 H   0  0  0  0  0  0  0  0  0  0  0  0
   -4.0647    1.6656    3.1974 H   0  0  0  0  0  0  0  0  0  0  0  0
   -1.2660    2.8953    5.4083 H   0  0  0  0  0  0  0  0  0  0  0  0
   -0.0204    2.9043    4.1538 H   0  0  0  0  0  0  0  0  0  0  0  0
   -0.6038    1.3664    4.8383 H   0  0  0  0  0  0  0  0  0  0  0  0
  1  2  1  0
  2  3  1  0
  4  3  1  6
  4  5  1  0
  4  6  2  0
  4  7  1  0
  7  8  1  0
  8  9  1  0
  9 10  1  0
 10 11  1  0
 11 12  1  0
 11 13  1  0
 10 14  1  0
 14 15  1  0
 14 16  1  0
  1 17  1  0
  1 18  1  0
  1 19  1  0
  2 20  1  0
  2 21  1  0
  5 22  1  0
  5 23  1  0
  5 24  1  0
  8 25  1  0
  8 26  1  0
  9 27  1  0
  9 28  1  0
 10 29  1  1
 11 30  1  6
 12 31  1  0
 12 32  1  0
 12 33  1  0
 13 34  1  0
 13 35  1  0
 13 36  1  0
 14 37  1  1
 15 38  1  0
 15 39  1  0
 15 40  1  0
 16 41  1  0
 16 42  1  0
 16 43  1  0
M  CHG  1  10   1
M  END
$$$$
