VX
     RDKit          3D

 43 42  0  0  0  0  0  0  0  0999 V2000
    4.0746   -1.9141   -1.0595 C   0  0  0  0  0  0  0  0  0  0  0  0
    3.4653   -0.5292   -1.1016 C   0  0  0  0  0  0  0  0  0  0  0  0
    2.9987   -0.1975    0.1973 O   0  0  0  0  0  0  0  0  0  0  0  0
    2.8377    1.3647    0.5742 P   0  0  1  0  0  0  0  0  0  0  0  0
    4.0403    2.1304    1.6420 C   0  0  0  0  0  0  0  0  0  0  0  0
    1.6882    2.1724    0.0343 O   0  0  0  0  0  0  0  0  0  0  0  0
    1.5408    0.7770    2.4563 S   0  0  0  0  0  0  0  0  0  0  0  0
   -0.1463    1.2224    1.9616 C   0  0  0  0  0  0  0  0  0  0  0  0
   -0.6212    0.3901    0.7617 C   0  0  0  0  0  0  0  0  0  0  0  0
   -1.9408    0.9638    0.1858 N   0  0  2  0  0  0  0  0  0  0  0  0
   -2.8843   -0.1334   -0.3570 C   0  0  2  0  0  0  0  0  0  0  0  0
   -4.1971    0.4623   -0.8679 C   0  0  0  0  0  0  0  0  0  0  0  0
   -3.2442   -1.1209    0.7653 C   0  0  0  0  0  0  0  0  0  0  0  0
   -1.5868    2.1455   -0.7546 C   0  0  1  0  0  0  0  0  0  0  0  0
   -1.2656    1.6908   -2.1740 C   0  0  0  0  0  0  0  0  0  0  0  0
   -2.6417    3.2453   -0.6805 C   0  0  0  0  0  0  0  0  0  0  0  0
    4.9380   -1.9284   -0.3885 H   0  0  0  0  0  0  0  0  0  0  0  0
    3.3576   -2.6455   -0.6701 H   0  0  0  0  0  0  0  0  0  0  0  0
    4.3992   -2.2266   -2.0545 H   0  0  0  0  0  0  0  0  0  0  0  0
    2.6137   -0.5070   -1.7905 H   0  0  0  0  0  0  0  0  0  0  0  0
    4.2093    0.2002   -1.4426 H   0  0  0  0  0  0  0  0  0  0  0  0
    4.4405    1.4064    2.3576 H   0  0  0  0  0  0  0  0  0  0  0  0
    3.5827    2.9499    2.2038 H   0  0  0  0  0  0  0  0  0  0  0  0
    4.8747    2.5406    1.0670 H   0  0  0  0  0  0  0  0  0  0  0  0
   -0.1640    2.2955    1.7538 H   0  0  0  0  0  0  0  0  0  0  0  0
   -0.8115    1.0510    2.8147 H   0  0  0  0  0  0  0  0  0  0  0  0
    0.0924    0.3417   -0.0642 H   0  0  0  0  0  0  0  0  0  0  0  0
   -0.7942   -0.6328    1.0945 H   0  0  0  0  0  0  0  0  0  0  0  0
   -2.4440    1.3749    0.9821 H   0  0  0  0  0  0  0  0  0  0  0  0
   -2.3505   -0.6530   -1.1610 H   0  0  0  0  0  0  0  0  0  0  0  0
   -4.6582    1.1200   -0.1227 H   0  0  0  0  0  0  0  0  0  0  0  0
   -4.0677    1.0159   -1.7990 H   0  0  0  0  0  0  0  0  0  0  0  0
   -4.9188   -0.3309   -1.0969 H   0  0  0  0  0  0  0  0  0  0  0  0
   -2.4145   -1.7854    1.0215 H   0  0  0  0  0  0  0  0  0  0  0  0
   -4.0622   -1.7803    0.4543 H   0  0  0  0  0  0  0  0  0  0  0  0
   -3.5643   -0.5978    1.6737 H   0  0  0  0  0  0  0  0  0  0  0  0
   -0.6786    2.5913   -0.3400 H   0  0  0  0  0  0  0  0  0  0  0  0
   -0.8724    2.5337   -2.7537 H   0  0  0  0  0  0  0  0  0  0  0  0
   -0.5023    0.9060   -2.1858 H   0  0  0  0  0  0  0  0  0  0  0  0
   -2.1411    1.3184   -2.7104 H   0  0  0  0  0  0  0  0  0  0  0  0
   -2.2513    4.1626   -1.1378 H   0  0  0  0  0  0  0  0  0  0  0  0
   -2.8956    3.4816    0.3582 H   0  0  0  0  0  0  0  0  0  0  0  0
   -3.5611    3.0021   -1.2145 H   0  0  0  0  0  0  0  0  0  0  0  0
  1  2  1  0
  2  3  1  0
  4  3  1  6
  4  5  1  0
  4  6  2  0
  4  7  1  0
  7  8  1  0
  8  9  1  0
  9 10  1  0
 10 11  1  0
 11 12  1  0
 11 13  1  0
 10 14  1  0
 14 15  1  0
 14 16  1  0
  1 17  1  0
  1 18  1  0
  1 19  1  0
  2 20  1  0
  2 21  1  0
  5 22  1  0
  5 23  1  0
  5 24  1  0
  8 25  1  0
  8 26  1  0
  9 27  1  0
  9 28  1  0
 10 29  1  1
 11 30  1  6
 12 31  1  0
 12 32  1  0
 12 33  1  0
 13 34  1  0
 13 35  1  0
 13 36  1  0
 14 37  1  6
 15 38  1  0
 15 39  1  0
 15 40  1  0
 16 41  1  0
 16 42  1  0
 16 43  1  0
M  CHG  1  10   1
M  END
$$$$
