VX
     RDKit          3D

 43 42  0  0  0  0  0  0  0  0999 V2000
    3.7928   -2.3562   -0.4796 C   0  0  0  0  0  0  0  0  0  0  0  0
    2.5236   -1.8489    0.1728 C   0  0  0  0  0  0  0  0  0  0  0  0
    2.5399   -0.4310    0.1721 O   0  0  0  0  0  0  0  0  0  0  0  0
    2.4646    0.3985    1.5537 P   0  0  1  0  0  0  0  0  0  0  0  0
    3.1325   -0.3271    3.0394 C   0  0  0  0  0  0  0  0  0  0  0  0
    1.8411    1.7674    1.5994 O   0  0  0  0  0  0  0  0  0  0  0  0
    0.3657   -0.5732    2.0227 S   0  0  0  0  0  0  0  0  0  0  0  0
   -0.6566    0.8620    2.4901 C   0  0  0  0  0  0  0  0  0  0  0  0
   -0.9474    1.8244    1.3261 C   0  0  0  0  0  0  0  0  0  0  0  0
   -2.2884    1.5676    0.6013 N   0  0  2  0  0  0  0  0  0  0  0  0
   -3.5574    1.7281    1.4625 C   0  0  1  0  0  0  0  0  0  0  0  0
   -3.4422    2.9425    2.3904 C   0  0  0  0  0  0  0  0  0  0  0  0
   -4.7825    1.9326    0.5691 C   0  0  0  0  0  0  0  0  0  0  0  0
   -2.1887    0.3371   -0.3257 C   0  0  1  0  0  0  0  0  0  0  0  0
   -2.8633   -0.9057    0.2431 C   0  0  0  0  0  0  0  0  0  0  0  0
   -2.6960    0.6928   -1.7229 C   0  0  0  0  0  0  0  0  0  0  0  0
    4.6743   -2.0169    0.0739 H   0  0  0  0  0  0  0  0  0  0  0  0
    3.8009   -3.4490   -0.5193 H   0  0  0  0  0  0  0  0  0  0  0  0
    3.8864   -1.9650   -1.4980 H   0  0  0  0  0  0  0  0  0  0  0  0
    2.4301   -2.2476    1.1871 H   0  0  0  0  0  0  0  0  0  0  0  0
    1.6499   -2.1763   -0.3987 H   0  0  0  0  0  0  0  0  0  0  0  0
    2.6287    0.0835    3.9193 H   0  0  0  0  0  0  0  0  0  0  0  0
    4.2001   -0.1055    3.1240 H   0  0  0  0  0  0  0  0  0  0  0  0
    3.0042   -1.4124    3.0552 H   0  0  0  0  0  0  0  0  0  0  0  0
   -0.1011    1.4003    3.2655 H   0  0  0  0  0  0  0  0  0  0  0  0
   -1.5727    0.4936    2.9579 H   0  0  0  0  0  0  0  0  0  0  0  0
   -0.9965    2.8547    1.6921 H   0  0  0  0  0  0  0  0  0  0  0  0
   -0.1817    1.8213    0.5446 H   0  0  0  0  0  0  0  0  0  0  0  0
   -2.3269    2.3694   -0.0425 H   0  0  0  0  0  0  0  0  0  0  0  0
   -3.6677    0.8228    2.0665 H   0  0  0  0  0  0  0  0  0  0  0  0
   -4.3864    3.1136    2.9200 H   0  0  0  0  0  0  0  0  0  0  0  0
   -3.2043    3.8546    1.8320 H   0  0  0  0  0  0  0  0  0  0  0  0
   -2.6816    2.7958    3.1628 H   0  0  0  0  0  0  0  0  0  0  0  0
   -4.6302    2.7531   -0.1405 H   0  0  0  0  0  0  0  0  0  0  0  0
   -5.6639    2.1763    1.1735 H   0  0  0  0  0  0  0  0  0  0  0  0
   -5.0414    1.0337    0.0076 H   0  0  0  0  0  0  0  0  0  0  0  0
   -1.1208    0.1249   -0.4416 H   0  0  0  0  0  0  0  0  0  0  0  0
   -3.9537   -0.8360    0.2307 H   0  0  0  0  0  0  0  0  0  0  0  0
   -2.5979   -1.7805   -0.3614 H   0  0  0  0  0  0  0  0  0  0  0  0
   -2.5491   -1.1137    1.2687 H   0  0  0  0  0  0  0  0  0  0  0  0
   -3.7685    0.8935   -1.7485 H   0  0  0  0  0  0  0  0  0  0  0  0
   -2.1761    1.5726   -2.1172 H   0  0  0  0  0  0  0  0  0  0  0  0
   -2.5054   -0.1359   -2.4140 H   0  0  0  0  0  0  0  0  0  0  0  0
  1  2  1  0
  2  3  1  0
  4  3  1  6
  4  5  1  0
  4  6  2  0
  4  7  1  0
  7  8  1  0
  8  9  1  0
  9 10  1  0
 10 11  1  0
 11 12  1  0
 11 13  1  0
 10 14  1  0
 14 15  1  0
 14 16  1  0
  1 17  1  0
  1 18  1  0
  1 19  1  0
  2 20  1  0
  2 21  1  0
  5 22  1  0
  5 23  1  0
  5 24  1  0
  8 25  1  0
  8 26  1  0
  9 27  1  0
  9 28  1  0
 10 29  1  1
 11 30  1  6
 12 31  1  0
 12 32  1  0
 12 33  1  0
 13 34  1  0
 13 35  1  0
 13 36  1  0
 14 37  1  6
 15 38  1  0
 15 39  1  0
 15 40  1  0
 16 41  1  0
 16 42  1  0
 16 43  1  0
M  CHG  1  10   1
M  END
$$$$
