VX
     RDKit          3D

 43 42  0  0  0  0  0  0  0  0999 V2000
    4.4022   -0.2864   -1.7821 C   0  0  0  0  0  0  0  0  0  0  0  0
    3.0690   -0.6160   -1.1444 C   0  0  0  0  0  0  0  0  0  0  0  0
    3.0171   -0.1966    0.2103 O   0  0  0  0  0  0  0  0  0  0  0  0
    2.8252    1.3657    0.5658 P   0  0  1  0  0  0  0  0  0  0  0  0
    4.0395    2.1153    1.6367 C   0  0  0  0  0  0  0  0  0  0  0  0
    1.6832    2.1857    0.0350 O   0  0  0  0  0  0  0  0  0  0  0  0
    1.5283    0.7780    2.4479 S   0  0  0  0  0  0  0  0  0  0  0  0
   -0.1582    1.1020    1.8609 C   0  0  0  0  0  0  0  0  0  0  0  0
   -1.1908    0.5184    2.8223 C   0  0  0  0  0  0  0  0  0  0  0  0
   -2.6265    0.5335    2.2626 N   0  0  2  0  0  0  0  0  0  0  0  0
   -3.2062    1.9302    1.9272 C   0  0  2  0  0  0  0  0  0  0  0  0
   -2.8264    2.3448    0.5082 C   0  0  0  0  0  0  0  0  0  0  0  0
   -2.8626    2.9770    2.9822 C   0  0  0  0  0  0  0  0  0  0  0  0
   -3.6408   -0.2880    3.1112 C   0  0  2  0  0  0  0  0  0  0  0  0
   -3.0126   -1.5302    3.7454 C   0  0  0  0  0  0  0  0  0  0  0  0
   -4.7958   -0.7402    2.2055 C   0  0  0  0  0  0  0  0  0  0  0  0
    4.5102    0.7939   -1.9186 H   0  0  0  0  0  0  0  0  0  0  0  0
    4.4869   -0.7600   -2.7654 H   0  0  0  0  0  0  0  0  0  0  0  0
    5.2327   -0.6218   -1.1515 H   0  0  0  0  0  0  0  0  0  0  0  0
    2.2403   -0.1757   -1.7076 H   0  0  0  0  0  0  0  0  0  0  0  0
    2.9246   -1.7014   -1.1475 H   0  0  0  0  0  0  0  0  0  0  0  0
    4.4365    1.3820    2.3457 H   0  0  0  0  0  0  0  0  0  0  0  0
    4.8742    2.5263    1.0658 H   0  0  0  0  0  0  0  0  0  0  0  0
    3.5881    2.9330    2.2036 H   0  0  0  0  0  0  0  0  0  0  0  0
   -0.2726    0.6581    0.8681 H   0  0  0  0  0  0  0  0  0  0  0  0
   -0.2536    2.1836    1.7790 H   0  0  0  0  0  0  0  0  0  0  0  0
   -1.2081    1.0215    3.7943 H   0  0  0  0  0  0  0  0  0  0  0  0
   -0.9332   -0.5340    2.9690 H   0  0  0  0  0  0  0  0  0  0  0  0
   -2.5641    0.0224    1.3719 H   0  0  0  0  0  0  0  0  0  0  0  0
   -4.2935    1.8225    1.9301 H   0  0  0  0  0  0  0  0  0  0  0  0
   -1.7934    2.6862    0.4258 H   0  0  0  0  0  0  0  0  0  0  0  0
   -2.9789    1.5263   -0.2041 H   0  0  0  0  0  0  0  0  0  0  0  0
   -3.4581    3.1806    0.1851 H   0  0  0  0  0  0  0  0  0  0  0  0
   -1.7976    3.2226    3.0059 H   0  0  0  0  0  0  0  0  0  0  0  0
   -3.3980    3.9092    2.7716 H   0  0  0  0  0  0  0  0  0  0  0  0
   -3.1644    2.6482    3.9796 H   0  0  0  0  0  0  0  0  0  0  0  0
   -4.0028    0.3765    3.9030 H   0  0  0  0  0  0  0  0  0  0  0  0
   -3.7800   -2.1430    4.2350 H   0  0  0  0  0  0  0  0  0  0  0  0
   -2.2928   -1.2617    4.5245 H   0  0  0  0  0  0  0  0  0  0  0  0
   -2.5185   -2.1606    2.9979 H   0  0  0  0  0  0  0  0  0  0  0  0
   -5.3990    0.0971    1.8463 H   0  0  0  0  0  0  0  0  0  0  0  0
   -5.4786   -1.4006    2.7518 H   0  0  0  0  0  0  0  0  0  0  0  0
   -4.4289   -1.2922    1.3351 H   0  0  0  0  0  0  0  0  0  0  0  0
  1  2  1  0
  2  3  1  0
  4  3  1  6
  4  5  1  0
  4  6  2  0
  4  7  1  0
  7  8  1  0
  8  9  1  0
  9 10  1  0
 10 11  1  0
 11 12  1  0
 11 13  1  0
 10 14  1  0
 14 15  1  0
 14 16  1  0
  1 17  1  0
  1 18  1  0
  1 19  1  0
  2 20  1  0
  2 21  1  0
  5 22  1  0
  5 23  1  0
  5 24  1  0
  8 25  1  0
  8 26  1  0
  9 27  1  0
  9 28  1  0
 10 29  1  6
 11 30  1  6
 12 31  1  0
 12 32  1  0
 12 33  1  0
 13 34  1  0
 13 35  1  0
 13 36  1  0
 14 37  1  1
 15 38  1  0
 15 39  1  0
 15 40  1  0
 16 41  1  0
 16 42  1  0
 16 43  1  0
M  CHG  1  10   1
M  END
$$$$
