VX
     RDKit          3D

 43 42  0  0  0  0  0  0  0  0999 V2000
    3.2075   -1.7595   -1.5882 C   0  0  0  0  0  0  0  0  0  0  0  0
    3.7936   -0.5333   -0.9285 C   0  0  0  0  0  0  0  0  0  0  0  0
    2.9993   -0.2000    0.1970 O   0  0  0  0  0  0  0  0  0  0  0  0
    2.8367    1.3658    0.5738 P   0  0  1  0  0  0  0  0  0  0  0  0
    4.0404    2.1311    1.6422 C   0  0  0  0  0  0  0  0  0  0  0  0
    1.6885    2.1733    0.0348 O   0  0  0  0  0  0  0  0  0  0  0  0
    1.5398    0.7781    2.4559 S   0  0  0  0  0  0  0  0  0  0  0  0
    0.1090   -0.0278    1.6888 C   0  0  0  0  0  0  0  0  0  0  0  0
   -0.9959   -0.2233    2.7297 C   0  0  0  0  0  0  0  0  0  0  0  0
   -2.1192   -1.1890    2.2950 N   0  0  2  0  0  0  0  0  0  0  0  0
   -1.8606   -2.6772    2.6230 C   0  0  2  0  0  0  0  0  0  0  0  0
   -1.6079   -2.8861    4.1176 C   0  0  0  0  0  0  0  0  0  0  0  0
   -0.7583   -3.2846    1.7654 C   0  0  0  0  0  0  0  0  0  0  0  0
   -2.6903   -0.9000    0.8832 C   0  0  1  0  0  0  0  0  0  0  0  0
   -3.7903   -1.9008    0.5031 C   0  0  0  0  0  0  0  0  0  0  0  0
   -3.2810    0.5157    0.8453 C   0  0  0  0  0  0  0  0  0  0  0  0
    3.8243   -2.0665   -2.4374 H   0  0  0  0  0  0  0  0  0  0  0  0
    2.1886   -1.5678   -1.9432 H   0  0  0  0  0  0  0  0  0  0  0  0
    3.1382   -2.5913   -0.8817 H   0  0  0  0  0  0  0  0  0  0  0  0
    4.8150   -0.7384   -0.5813 H   0  0  0  0  0  0  0  0  0  0  0  0
    3.8349    0.3012   -1.6427 H   0  0  0  0  0  0  0  0  0  0  0  0
    4.8778    2.5329    1.0642 H   0  0  0  0  0  0  0  0  0  0  0  0
    4.4365    1.4135    2.3703 H   0  0  0  0  0  0  0  0  0  0  0  0
    3.5904    2.9558    2.1906 H   0  0  0  0  0  0  0  0  0  0  0  0
    0.4616   -0.9671    1.2592 H   0  0  0  0  0  0  0  0  0  0  0  0
   -0.2454    0.6036    0.8703 H   0  0  0  0  0  0  0  0  0  0  0  0
   -0.5964   -0.5921    3.6771 H   0  0  0  0  0  0  0  0  0  0  0  0
   -1.4910    0.7312    2.9597 H   0  0  0  0  0  0  0  0  0  0  0  0
   -2.8983   -0.9484    2.9262 H   0  0  0  0  0  0  0  0  0  0  0  0
   -2.8032   -3.1912    2.4105 H   0  0  0  0  0  0  0  0  0  0  0  0
   -0.6272   -2.5219    4.4328 H   0  0  0  0  0  0  0  0  0  0  0  0
   -1.6433   -3.9583    4.3610 H   0  0  0  0  0  0  0  0  0  0  0  0
   -2.3721   -2.3846    4.7187 H   0  0  0  0  0  0  0  0  0  0  0  0
   -0.8031   -4.3747    1.8225 H   0  0  0  0  0  0  0  0  0  0  0  0
   -0.8599   -3.0116    0.7073 H   0  0  0  0  0  0  0  0  0  0  0  0
    0.2383   -2.9943    2.1100 H   0  0  0  0  0  0  0  0  0  0  0  0
   -1.8597   -0.9864    0.1771 H   0  0  0  0  0  0  0  0  0  0  0  0
   -3.3876   -2.9121    0.3715 H   0  0  0  0  0  0  0  0  0  0  0  0
   -4.5838   -1.9390    1.2522 H   0  0  0  0  0  0  0  0  0  0  0  0
   -4.2473   -1.6289   -0.4565 H   0  0  0  0  0  0  0  0  0  0  0  0
   -2.5338    1.2868    1.0536 H   0  0  0  0  0  0  0  0  0  0  0  0
   -4.0946    0.6267    1.5697 H   0  0  0  0  0  0  0  0  0  0  0  0
   -3.6919    0.7301   -0.1505 H   0  0  0  0  0  0  0  0  0  0  0  0
  1  2  1  0
  2  3  1  0
  4  3  1  6
  4  5  1  0
  4  6  2  0
  4  7  1  0
  7  8  1  0
  8  9  1  0
  9 10  1  0
 10 11  1  0
 11 12  1  0
 11 13  1  0
 10 14  1  0
 14 15  1  0
 14 16  1  0
  1 17  1  0
  1 18  1  0
  1 19  1  0
  2 20  1  0
  2 21  1  0
  5 22  1  0
  5 23  1  0
  5 24  1  0
  8 25  1  0
  8 26  1  0
  9 27  1  0
  9 28  1  0
 10 29  1  1
 11 30  1  6
 12 31  1  0
 12 32  1  0
 12 33  1  0
 13 34  1  0
 13 35  1  0
 13 36  1  0
 14 37  1  1
 15 38  1  0
 15 39  1  0
 15 40  1  0
 16 41  1  0
 16 42  1  0
 16 43  1  0
M  CHG  1  10   1
M  END
$$$$
