VX
     RDKit          3D

 43 42  0  0  0  0  0  0  0  0999 V2000
    3.7058   -2.0226   -1.1633 C   0  0  0  0  0  0  0  0  0  0  0  0
    3.4931   -0.5248   -1.0908 C   0  0  0  0  0  0  0  0  0  0  0  0
    3.0078   -0.1988    0.2032 O   0  0  0  0  0  0  0  0  0  0  0  0
    2.8309    1.3662    0.5700 P   0  0  1  0  0  0  0  0  0  0  0  0
    4.0395    2.1236    1.6393 C   0  0  0  0  0  0  0  0  0  0  0  0
    1.6867    2.1792    0.0353 O   0  0  0  0  0  0  0  0  0  0  0  0
    1.5340    0.7785    2.4521 S   0  0  0  0  0  0  0  0  0  0  0  0
   -0.0698    0.4065    1.6848 C   0  0  0  0  0  0  0  0  0  0  0  0
   -1.0861    0.0186    2.7534 C   0  0  0  0  0  0  0  0  0  0  0  0
   -2.4308   -0.5101    2.2311 N   0  0  2  0  0  0  0  0  0  0  0  0
   -2.4762   -2.0407    2.0806 C   0  0  1  0  0  0  0  0  0  0  0  0
   -3.8893   -2.5261    1.7668 C   0  0  0  0  0  0  0  0  0  0  0  0
   -1.4466   -2.5918    1.1037 C   0  0  0  0  0  0  0  0  0  0  0  0
   -3.2332    0.3583    1.2517 C   0  0  1  0  0  0  0  0  0  0  0  0
   -3.2782    1.8092    1.7333 C   0  0  0  0  0  0  0  0  0  0  0  0
   -2.7874    0.2439   -0.1984 C   0  0  0  0  0  0  0  0  0  0  0  0
    4.0739   -2.3176   -2.1497 H   0  0  0  0  0  0  0  0  0  0  0  0
    2.7709   -2.5554   -0.9605 H   0  0  0  0  0  0  0  0  0  0  0  0
    4.4275   -2.3456   -0.4058 H   0  0  0  0  0  0  0  0  0  0  0  0
    4.4352   -0.0021   -1.2785 H   0  0  0  0  0  0  0  0  0  0  0  0
    2.7581   -0.2127   -1.8391 H   0  0  0  0  0  0  0  0  0  0  0  0
    3.5847    2.9346    2.2151 H   0  0  0  0  0  0  0  0  0  0  0  0
    4.8669    2.5436    1.0615 H   0  0  0  0  0  0  0  0  0  0  0  0
    4.4482    1.3917    2.3416 H   0  0  0  0  0  0  0  0  0  0  0  0
    0.0856   -0.3818    0.9475 H   0  0  0  0  0  0  0  0  0  0  0  0
   -0.3874    1.3082    1.1587 H   0  0  0  0  0  0  0  0  0  0  0  0
   -0.6936   -0.7604    3.4177 H   0  0  0  0  0  0  0  0  0  0  0  0
   -1.3270    0.8820    3.3855 H   0  0  0  0  0  0  0  0  0  0  0  0
   -3.0059   -0.4020    3.0783 H   0  0  0  0  0  0  0  0  0  0  0  0
   -2.2259   -2.4220    3.0793 H   0  0  0  0  0  0  0  0  0  0  0  0
   -4.6179   -2.1096    2.4701 H   0  0  0  0  0  0  0  0  0  0  0  0
   -4.1989   -2.2697    0.7495 H   0  0  0  0  0  0  0  0  0  0  0  0
   -3.9407   -3.6172    1.8530 H   0  0  0  0  0  0  0  0  0  0  0  0
   -0.4299   -2.4577    1.4842 H   0  0  0  0  0  0  0  0  0  0  0  0
   -1.5854   -3.6717    0.9779 H   0  0  0  0  0  0  0  0  0  0  0  0
   -1.5069   -2.1408    0.1126 H   0  0  0  0  0  0  0  0  0  0  0  0
   -4.2633   -0.0101    1.3181 H   0  0  0  0  0  0  0  0  0  0  0  0
   -2.3146    2.3152    1.6330 H   0  0  0  0  0  0  0  0  0  0  0  0
   -3.5920    1.8686    2.7811 H   0  0  0  0  0  0  0  0  0  0  0  0
   -4.0040    2.3799    1.1429 H   0  0  0  0  0  0  0  0  0  0  0  0
   -1.7329    0.4734   -0.3512 H   0  0  0  0  0  0  0  0  0  0  0  0
   -3.3594    0.9412   -0.8216 H   0  0  0  0  0  0  0  0  0  0  0  0
   -2.9843   -0.7526   -0.6007 H   0  0  0  0  0  0  0  0  0  0  0  0
  1  2  1  0
  2  3  1  0
  4  3  1  6
  4  5  1  0
  4  6  2  0
  4  7  1  0
  7  8  1  0
  8  9  1  0
  9 10  1  0
 10 11  1  0
 11 12  1  0
 11 13  1  0
 10 14  1  0
 14 15  1  0
 14 16  1  0
  1 17  1  0
  1 18  1  0
  1 19  1  0
  2 20  1  0
  2 21  1  0
  5 22  1  0
  5 23  1  0
  5 24  1  0
  8 25  1  0
  8 26  1  0
  9 27  1  0
  9 28  1  0
 10 29  1  1
 11 30  1  6
 12 31  1  0
 12 32  1  0
 12 33  1  0
 13 34  1  0
 13 35  1  0
 13 36  1  0
 14 37  1  1
 15 38  1  0
 15 39  1  0
 15 40  1  0
 16 41  1  0
 16 42  1  0
 16 43  1  0
M  CHG  1  10   1
M  END
$$$$
