VX
     RDKit          3D

 43 42  0  0  0  0  0  0  0  0999 V2000
    3.3729   -2.4875    0.7183 C   0  0  0  0  0  0  0  0  0  0  0  0
    3.7834   -1.0563    0.9954 C   0  0  0  0  0  0  0  0  0  0  0  0
    2.9914   -0.1954    0.1929 O   0  0  0  0  0  0  0  0  0  0  0  0
    2.8416    1.3639    0.5766 P   0  0  1  0  0  0  0  0  0  0  0  0
    4.0405    2.1357    1.6437 C   0  0  0  0  0  0  0  0  0  0  0  0
    1.6915    2.1658    0.0345 O   0  0  0  0  0  0  0  0  0  0  0  0
    1.5447    0.7763    2.4587 S   0  0  0  0  0  0  0  0  0  0  0  0
    0.2607   -0.3127    1.7591 C   0  0  0  0  0  0  0  0  0  0  0  0
   -0.7772    0.4071    0.8754 C   0  0  0  0  0  0  0  0  0  0  0  0
   -1.2079    1.7804    1.4356 N   0  0  1  0  0  0  0  0  0  0  0  0
   -1.2659    2.8146    0.2775 C   0  0  1  0  0  0  0  0  0  0  0  0
   -2.6296    2.8419   -0.4022 C   0  0  0  0  0  0  0  0  0  0  0  0
   -0.7797    4.1873    0.7346 C   0  0  0  0  0  0  0  0  0  0  0  0
   -2.4303    1.7295    2.3749 C   0  0  1  0  0  0  0  0  0  0  0  0
   -2.2832    0.6410    3.4391 C   0  0  0  0  0  0  0  0  0  0  0  0
   -2.6275    3.0650    3.0904 C   0  0  0  0  0  0  0  0  0  0  0  0
    3.5004   -2.7274   -0.3425 H   0  0  0  0  0  0  0  0  0  0  0  0
    2.3138   -2.6365    0.9533 H   0  0  0  0  0  0  0  0  0  0  0  0
    3.9681   -3.1866    1.3124 H   0  0  0  0  0  0  0  0  0  0  0  0
    3.6424   -0.8249    2.0553 H   0  0  0  0  0  0  0  0  0  0  0  0
    4.8367   -0.9108    0.7380 H   0  0  0  0  0  0  0  0  0  0  0  0
    4.8872    2.5091    1.0609 H   0  0  0  0  0  0  0  0  0  0  0  0
    3.5902    2.9818    2.1709 H   0  0  0  0  0  0  0  0  0  0  0  0
    4.4194    1.4359    2.3934 H   0  0  0  0  0  0  0  0  0  0  0  0
    0.7486   -1.0987    1.1731 H   0  0  0  0  0  0  0  0  0  0  0  0
   -0.2227   -0.8208    2.5957 H   0  0  0  0  0  0  0  0  0  0  0  0
   -1.6818   -0.1934    0.7316 H   0  0  0  0  0  0  0  0  0  0  0  0
   -0.3350    0.5551   -0.1143 H   0  0  0  0  0  0  0  0  0  0  0  0
   -0.4007    2.0740    2.0082 H   0  0  0  0  0  0  0  0  0  0  0  0
   -0.5459    2.4819   -0.4737 H   0  0  0  0  0  0  0  0  0  0  0  0
   -3.4070    3.2758    0.2321 H   0  0  0  0  0  0  0  0  0  0  0  0
   -2.5822    3.4528   -1.3108 H   0  0  0  0  0  0  0  0  0  0  0  0
   -2.9444    1.8363   -0.6995 H   0  0  0  0  0  0  0  0  0  0  0  0
    0.1405    4.1131    1.3229 H   0  0  0  0  0  0  0  0  0  0  0  0
   -0.5573    4.8083   -0.1410 H   0  0  0  0  0  0  0  0  0  0  0  0
   -1.5194    4.7359    1.3187 H   0  0  0  0  0  0  0  0  0  0  0  0
   -3.3021    1.4918    1.7568 H   0  0  0  0  0  0  0  0  0  0  0  0
   -1.3584    0.7559    4.0128 H   0  0  0  0  0  0  0  0  0  0  0  0
   -3.1165    0.6836    4.1504 H   0  0  0  0  0  0  0  0  0  0  0  0
   -2.3190   -0.3598    3.0006 H   0  0  0  0  0  0  0  0  0  0  0  0
   -3.0395    3.8239    2.4228 H   0  0  0  0  0  0  0  0  0  0  0  0
   -3.3526    2.9681    3.9068 H   0  0  0  0  0  0  0  0  0  0  0  0
   -1.6918    3.4358    3.5216 H   0  0  0  0  0  0  0  0  0  0  0  0
  1  2  1  0
  2  3  1  0
  4  3  1  6
  4  5  1  0
  4  6  2  0
  4  7  1  0
  7  8  1  0
  8  9  1  0
  9 10  1  0
 10 11  1  0
 11 12  1  0
 11 13  1  0
 10 14  1  0
 14 15  1  0
 14 16  1  0
  1 17  1  0
  1 18  1  0
  1 19  1  0
  2 20  1  0
  2 21  1  0
  5 22  1  0
  5 23  1  0
  5 24  1  0
  8 25  1  0
  8 26  1  0
  9 27  1  0
  9 28  1  0
 10 29  1  6
 11 30  1  1
 12 31  1  0
 12 32  1  0
 12 33  1  0
 13 34  1  0
 13 35  1  0
 13 36  1  0
 14 37  1  1
 15 38  1  0
 15 39  1  0
 15 40  1  0
 16 41  1  0
 16 42  1  0
 16 43  1  0
M  CHG  1  10   1
M  END
$$$$
