VX
     RDKit          3D

 43 42  0  0  0  0  0  0  0  0999 V2000
    2.3432   -2.3450   -0.5418 C   0  0  0  0  0  0  0  0  0  0  0  0
    2.0257   -0.8645   -0.5172 C   0  0  0  0  0  0  0  0  0  0  0  0
    3.0334   -0.1951    0.2220 O   0  0  0  0  0  0  0  0  0  0  0  0
    2.8155    1.3661    0.5593 P   0  0  1  0  0  0  0  0  0  0  0  0
    4.0383    2.1011    1.6314 C   0  0  0  0  0  0  0  0  0  0  0  0
    1.6778    2.1979    0.0351 O   0  0  0  0  0  0  0  0  0  0  0  0
    1.5186    0.7784    2.4414 S   0  0  0  0  0  0  0  0  0  0  0  0
    0.4700    2.2292    2.7490 C   0  0  0  0  0  0  0  0  0  0  0  0
   -0.7163    2.2742    1.7801 C   0  0  0  0  0  0  0  0  0  0  0  0
   -1.7078    3.4191    2.0774 N   0  0  1  0  0  0  0  0  0  0  0  0
   -2.5249    3.1184    3.3532 C   0  0  2  0  0  0  0  0  0  0  0  0
   -4.0162    3.2849    3.0683 C   0  0  0  0  0  0  0  0  0  0  0  0
   -2.0645    3.9098    4.5727 C   0  0  0  0  0  0  0  0  0  0  0  0
   -1.1528    4.8459    1.8868 C   0  0  1  0  0  0  0  0  0  0  0  0
   -0.3082    4.9436    0.6130 C   0  0  0  0  0  0  0  0  0  0  0  0
   -2.3029    5.8479    1.7607 C   0  0  0  0  0  0  0  0  0  0  0  0
    1.5878   -2.8969   -1.1080 H   0  0  0  0  0  0  0  0  0  0  0  0
    2.3859   -2.7469    0.4759 H   0  0  0  0  0  0  0  0  0  0  0  0
    3.3241   -2.5218   -0.9953 H   0  0  0  0  0  0  0  0  0  0  0  0
    2.0039   -0.4663   -1.5362 H   0  0  0  0  0  0  0  0  0  0  0  0
    1.0509   -0.6954   -0.0488 H   0  0  0  0  0  0  0  0  0  0  0  0
    3.6031    2.9270    2.2012 H   0  0  0  0  0  0  0  0  0  0  0  0
    4.8741    2.4917    1.0442 H   0  0  0  0  0  0  0  0  0  0  0  0
    4.4298    1.3632    2.3372 H   0  0  0  0  0  0  0  0  0  0  0  0
    1.0828    3.1321    2.6832 H   0  0  0  0  0  0  0  0  0  0  0  0
    0.1191    2.1381    3.7793 H   0  0  0  0  0  0  0  0  0  0  0  0
   -1.3045    1.3494    1.8324 H   0  0  0  0  0  0  0  0  0  0  0  0
   -0.4215    2.3841    0.7355 H   0  0  0  0  0  0  0  0  0  0  0  0
   -2.3789    3.3188    1.3032 H   0  0  0  0  0  0  0  0  0  0  0  0
   -2.3692    2.0549    3.5709 H   0  0  0  0  0  0  0  0  0  0  0  0
   -4.6039    2.9525    3.9312 H   0  0  0  0  0  0  0  0  0  0  0  0
   -4.3221    2.6763    2.2105 H   0  0  0  0  0  0  0  0  0  0  0  0
   -4.2966    4.3204    2.8657 H   0  0  0  0  0  0  0  0  0  0  0  0
   -0.9871    3.8257    4.7363 H   0  0  0  0  0  0  0  0  0  0  0  0
   -2.5585    3.5233    5.4717 H   0  0  0  0  0  0  0  0  0  0  0  0
   -2.3167    4.9706    4.5101 H   0  0  0  0  0  0  0  0  0  0  0  0
   -0.5271    5.0752    2.7547 H   0  0  0  0  0  0  0  0  0  0  0  0
   -0.8472    4.5619   -0.2607 H   0  0  0  0  0  0  0  0  0  0  0  0
    0.6335    4.3995    0.7120 H   0  0  0  0  0  0  0  0  0  0  0  0
   -0.0358    5.9852    0.4078 H   0  0  0  0  0  0  0  0  0  0  0  0
   -1.9200    6.8443    1.5121 H   0  0  0  0  0  0  0  0  0  0  0  0
   -3.0041    5.5560    0.9711 H   0  0  0  0  0  0  0  0  0  0  0  0
   -2.8617    5.9634    2.6903 H   0  0  0  0  0  0  0  0  0  0  0  0
  1  2  1  0
  2  3  1  0
  4  3  1  6
  4  5  1  0
  4  6  2  0
  4  7  1  0
  7  8  1  0
  8  9  1  0
  9 10  1  0
 10 11  1  0
 11 12  1  0
 11 13  1  0
 10 14  1  0
 14 15  1  0
 14 16  1  0
  1 17  1  0
  1 18  1  0
  1 19  1  0
  2 20  1  0
  2 21  1  0
  5 22  1  0
  5 23  1  0
  5 24  1  0
  8 25  1  0
  8 26  1  0
  9 27  1  0
  9 28  1  0
 10 29  1  1
 11 30  1  1
 12 31  1  0
 12 32  1  0
 12 33  1  0
 13 34  1  0
 13 35  1  0
 13 36  1  0
 14 37  1  6
 15 38  1  0
 15 39  1  0
 15 40  1  0
 16 41  1  0
 16 42  1  0
 16 43  1  0
M  CHG  1  10   1
M  END
$$$$
