VX
     RDKit          3D

 43 42  0  0  0  0  0  0  0  0999 V2000
    3.6143   -2.0342   -1.1913 C   0  0  0  0  0  0  0  0  0  0  0  0
    3.5392   -0.5260   -1.0726 C   0  0  0  0  0  0  0  0  0  0  0  0
    3.0061   -0.1985    0.2021 O   0  0  0  0  0  0  0  0  0  0  0  0
    2.8321    1.3659    0.5707 P   0  0  1  0  0  0  0  0  0  0  0  0
    4.0396    2.1249    1.6397 C   0  0  0  0  0  0  0  0  0  0  0  0
    1.6871    2.1778    0.0353 O   0  0  0  0  0  0  0  0  0  0  0  0
    1.5352    0.7783    2.4528 S   0  0  0  0  0  0  0  0  0  0  0  0
   -0.0647    0.3971    1.6899 C   0  0  0  0  0  0  0  0  0  0  0  0
   -1.0993    0.0446    2.7602 C   0  0  0  0  0  0  0  0  0  0  0  0
   -2.5186   -0.0402    2.1777 N   0  0  1  0  0  0  0  0  0  0  0  0
   -2.7308   -1.2169    1.2132 C   0  0  1  0  0  0  0  0  0  0  0  0
   -2.9477   -2.5380    1.9375 C   0  0  0  0  0  0  0  0  0  0  0  0
   -3.8722   -0.8940    0.2486 C   0  0  0  0  0  0  0  0  0  0  0  0
   -3.6377    0.1812    3.2148 C   0  0  1  0  0  0  0  0  0  0  0  0
   -3.3414   -0.4758    4.5617 C   0  0  0  0  0  0  0  0  0  0  0  0
   -3.8682    1.6849    3.3711 C   0  0  0  0  0  0  0  0  0  0  0  0
    2.6216   -2.4804   -1.0712 H   0  0  0  0  0  0  0  0  0  0  0  0
    4.0192   -2.3297   -2.1632 H   0  0  0  0  0  0  0  0  0  0  0  0
    4.2486   -2.4518   -0.4023 H   0  0  0  0  0  0  0  0  0  0  0  0
    4.5373   -0.0914   -1.1779 H   0  0  0  0  0  0  0  0  0  0  0  0
    2.8892   -0.1202   -1.8538 H   0  0  0  0  0  0  0  0  0  0  0  0
    4.4549    1.3920    2.3373 H   0  0  0  0  0  0  0  0  0  0  0  0
    3.5814    2.9303    2.2209 H   0  0  0  0  0  0  0  0  0  0  0  0
    4.8623    2.5533    1.0615 H   0  0  0  0  0  0  0  0  0  0  0  0
   -0.3949    1.2702    1.1188 H   0  0  0  0  0  0  0  0  0  0  0  0
    0.0887   -0.4300    0.9923 H   0  0  0  0  0  0  0  0  0  0  0  0
   -1.1241    0.8391    3.5127 H   0  0  0  0  0  0  0  0  0  0  0  0
   -0.8816   -0.9114    3.2461 H   0  0  0  0  0  0  0  0  0  0  0  0
   -2.5804    0.7856    1.5664 H   0  0  0  0  0  0  0  0  0  0  0  0
   -1.8193   -1.2915    0.6141 H   0  0  0  0  0  0  0  0  0  0  0  0
   -2.9886   -3.3592    1.2130 H   0  0  0  0  0  0  0  0  0  0  0  0
   -3.8912   -2.5550    2.4913 H   0  0  0  0  0  0  0  0  0  0  0  0
   -2.1300   -2.7595    2.6292 H   0  0  0  0  0  0  0  0  0  0  0  0
   -3.9323   -1.6600   -0.5326 H   0  0  0  0  0  0  0  0  0  0  0  0
   -4.8457   -0.8629    0.7461 H   0  0  0  0  0  0  0  0  0  0  0  0
   -3.7101    0.0690   -0.2470 H   0  0  0  0  0  0  0  0  0  0  0  0
   -4.5502   -0.2554    2.7998 H   0  0  0  0  0  0  0  0  0  0  0  0
   -2.5232    0.0190    5.0946 H   0  0  0  0  0  0  0  0  0  0  0  0
   -4.2243   -0.4097    5.2078 H   0  0  0  0  0  0  0  0  0  0  0  0
   -3.0915   -1.5345    4.4643 H   0  0  0  0  0  0  0  0  0  0  0  0
   -2.9833    2.1970    3.7621 H   0  0  0  0  0  0  0  0  0  0  0  0
   -4.1299    2.1436    2.4114 H   0  0  0  0  0  0  0  0  0  0  0  0
   -4.6959    1.8745    4.0631 H   0  0  0  0  0  0  0  0  0  0  0  0
  1  2  1  0
  2  3  1  0
  4  3  1  6
  4  5  1  0
  4  6  2  0
  4  7  1  0
  7  8  1  0
  8  9  1  0
  9 10  1  0
 10 11  1  0
 11 12  1  0
 11 13  1  0
 10 14  1  0
 14 15  1  0
 14 16  1  0
  1 17  1  0
  1 18  1  0
  1 19  1  0
  2 20  1  0
  2 21  1  0
  5 22  1  0
  5 23  1  0
  5 24  1  0
  8 25  1  0
  8 26  1  0
  9 27  1  0
  9 28  1  0
 10 29  1  1
 11 30  1  1
 12 31  1  0
 12 32  1  0
 12 33  1  0
 13 34  1  0
 13 35  1  0
 13 36  1  0
 14 37  1  1
 15 38  1  0
 15 39  1  0
 15 40  1  0
 16 41  1  0
 16 42  1  0
 16 43  1  0
M  CHG  1  10   1
M  END
$$$$
