VX
     RDKit          3D

 43 42  0  0  0  0  0  0  0  0999 V2000
    2.3987   -1.0395   -1.9645 C   0  0  0  0  0  0  0  0  0  0  0  0
    3.5206   -0.5344   -1.0782 C   0  0  0  0  0  0  0  0  0  0  0  0
    2.9980   -0.1981    0.1966 O   0  0  0  0  0  0  0  0  0  0  0  0
    2.8381    1.3649    0.5745 P   0  0  1  0  0  0  0  0  0  0  0  0
    4.0404    2.1313    1.6422 C   0  0  0  0  0  0  0  0  0  0  0  0
    1.6884    2.1720    0.0344 O   0  0  0  0  0  0  0  0  0  0  0  0
    1.5412    0.7772    2.4566 S   0  0  0  0  0  0  0  0  0  0  0  0
   -0.0621    0.4133    1.7029 C   0  0  0  0  0  0  0  0  0  0  0  0
   -0.8761    1.6951    1.4648 C   0  0  0  0  0  0  0  0  0  0  0  0
   -1.9948    1.4379    0.4461 N   0  0  1  0  0  0  0  0  0  0  0  0
   -3.3055    2.1882    0.7159 C   0  0  2  0  0  0  0  0  0  0  0  0
   -3.1015    3.6506    1.1130 C   0  0  0  0  0  0  0  0  0  0  0  0
   -4.0790    1.4332    1.8027 C   0  0  0  0  0  0  0  0  0  0  0  0
   -1.4716    1.4638   -1.0030 C   0  0  1  0  0  0  0  0  0  0  0  0
   -2.3050    0.5018   -1.8527 C   0  0  0  0  0  0  0  0  0  0  0  0
   -1.4366    2.8625   -1.6053 C   0  0  0  0  0  0  0  0  0  0  0  0
    1.6294   -0.2722   -2.0838 H   0  0  0  0  0  0  0  0  0  0  0  0
    2.7734   -1.3119   -2.9543 H   0  0  0  0  0  0  0  0  0  0  0  0
    1.9125   -1.9136   -1.5197 H   0  0  0  0  0  0  0  0  0  0  0  0
    4.0048    0.3299   -1.5403 H   0  0  0  0  0  0  0  0  0  0  0  0
    4.2757   -1.3108   -0.9423 H   0  0  0  0  0  0  0  0  0  0  0  0
    3.6093    3.0141    2.1154 H   0  0  0  0  0  0  0  0  0  0  0  0
    4.9182    2.4480    1.0727 H   0  0  0  0  0  0  0  0  0  0  0  0
    4.3751    1.4507    2.4288 H   0  0  0  0  0  0  0  0  0  0  0  0
   -0.6220   -0.2472    2.3741 H   0  0  0  0  0  0  0  0  0  0  0  0
    0.1136   -0.1441    0.7805 H   0  0  0  0  0  0  0  0  0  0  0  0
   -1.3447    1.9796    2.4103 H   0  0  0  0  0  0  0  0  0  0  0  0
   -0.2970    2.5440    1.0978 H   0  0  0  0  0  0  0  0  0  0  0  0
   -2.2476    0.4538    0.5904 H   0  0  0  0  0  0  0  0  0  0  0  0
   -3.8980    2.1327   -0.2031 H   0  0  0  0  0  0  0  0  0  0  0  0
   -2.5476    4.2200    0.3666 H   0  0  0  0  0  0  0  0  0  0  0  0
   -2.5838    3.7601    2.0710 H   0  0  0  0  0  0  0  0  0  0  0  0
   -4.0751    4.1416    1.2242 H   0  0  0  0  0  0  0  0  0  0  0  0
   -3.5363    1.4097    2.7536 H   0  0  0  0  0  0  0  0  0  0  0  0
   -5.0477    1.9105    1.9881 H   0  0  0  0  0  0  0  0  0  0  0  0
   -4.2757    0.3963    1.4997 H   0  0  0  0  0  0  0  0  0  0  0  0
   -0.4509    1.0687   -0.9713 H   0  0  0  0  0  0  0  0  0  0  0  0
   -2.2461   -0.5179   -1.4527 H   0  0  0  0  0  0  0  0  0  0  0  0
   -1.9192    0.4750   -2.8764 H   0  0  0  0  0  0  0  0  0  0  0  0
   -3.3584    0.7902   -1.8964 H   0  0  0  0  0  0  0  0  0  0  0  0
   -0.8336    3.5525   -1.0044 H   0  0  0  0  0  0  0  0  0  0  0  0
   -0.9855    2.8277   -2.6030 H   0  0  0  0  0  0  0  0  0  0  0  0
   -2.4397    3.2785   -1.7304 H   0  0  0  0  0  0  0  0  0  0  0  0
  1  2  1  0
  2  3  1  0
  4  3  1  6
  4  5  1  0
  4  6  2  0
  4  7  1  0
  7  8  1  0
  8  9  1  0
  9 10  1  0
 10 11  1  0
 11 12  1  0
 11 13  1  0
 10 14  1  0
 14 15  1  0
 14 16  1  0
  1 17  1  0
  1 18  1  0
  1 19  1  0
  2 20  1  0
  2 21  1  0
  5 22  1  0
  5 23  1  0
  5 24  1  0
  8 25  1  0
  8 26  1  0
  9 27  1  0
  9 28  1  0
 10 29  1  6
 11 30  1  6
 12 31  1  0
 12 32  1  0
 12 33  1  0
 13 34  1  0
 13 35  1  0
 13 36  1  0
 14 37  1  6
 15 38  1  0
 15 39  1  0
 15 40  1  0
 16 41  1  0
 16 42  1  0
 16 43  1  0
M  CHG  1  10   1
M  END
$$$$
