VX
     RDKit          3D

 43 42  0  0  0  0  0  0  0  0999 V2000
    2.2213   -2.3676   -1.1750 C   0  0  0  0  0  0  0  0  0  0  0  0
    2.6602   -1.8372    0.1742 C   0  0  0  0  0  0  0  0  0  0  0  0
    2.5356   -0.4243    0.1666 O   0  0  0  0  0  0  0  0  0  0  0  0
    2.4677    0.3934    1.5569 P   0  0  1  0  0  0  0  0  0  0  0  0
    3.1327   -0.3244    3.0458 C   0  0  0  0  0  0  0  0  0  0  0  0
    1.8422    1.7632    1.5954 O   0  0  0  0  0  0  0  0  0  0  0  0
    0.3687   -0.5783    2.0259 S   0  0  0  0  0  0  0  0  0  0  0  0
   -0.7357    0.4347    0.9892 C   0  0  0  0  0  0  0  0  0  0  0  0
   -1.1167    1.7285    1.7171 C   0  0  0  0  0  0  0  0  0  0  0  0
   -1.7123    2.8277    0.8344 N   0  0  2  0  0  0  0  0  0  0  0  0
   -3.2264    2.8311    0.6182 C   0  0  1  0  0  0  0  0  0  0  0  0
   -3.7790    1.4597    0.2553 C   0  0  0  0  0  0  0  0  0  0  0  0
   -3.9113    3.3842    1.8703 C   0  0  0  0  0  0  0  0  0  0  0  0
   -0.8248    3.2510   -0.3491 C   0  0  1  0  0  0  0  0  0  0  0  0
   -1.2391    2.6026   -1.6661 C   0  0  0  0  0  0  0  0  0  0  0  0
   -0.8439    4.7773   -0.4615 C   0  0  0  0  0  0  0  0  0  0  0  0
    2.8274   -1.9330   -1.9767 H   0  0  0  0  0  0  0  0  0  0  0  0
    2.3117   -3.4567   -1.2146 H   0  0  0  0  0  0  0  0  0  0  0  0
    1.1810   -2.0916   -1.3770 H   0  0  0  0  0  0  0  0  0  0  0  0
    2.0430   -2.2715    0.9658 H   0  0  0  0  0  0  0  0  0  0  0  0
    3.7065   -2.0992    0.3578 H   0  0  0  0  0  0  0  0  0  0  0  0
    2.9973   -1.4093    3.0627 H   0  0  0  0  0  0  0  0  0  0  0  0
    4.2014   -0.1086    3.1301 H   0  0  0  0  0  0  0  0  0  0  0  0
    2.6305    0.0911    3.9241 H   0  0  0  0  0  0  0  0  0  0  0  0
   -1.6191   -0.1639    0.7583 H   0  0  0  0  0  0  0  0  0  0  0  0
   -0.2016    0.6209    0.0571 H   0  0  0  0  0  0  0  0  0  0  0  0
   -0.2553    2.2004    2.1980 H   0  0  0  0  0  0  0  0  0  0  0  0
   -1.8418    1.5255    2.5125 H   0  0  0  0  0  0  0  0  0  0  0  0
   -1.5847    3.6316    1.4634 H   0  0  0  0  0  0  0  0  0  0  0  0
   -3.4260    3.5318   -0.1986 H   0  0  0  0  0  0  0  0  0  0  0  0
   -4.8396    1.5436   -0.0078 H   0  0  0  0  0  0  0  0  0  0  0  0
   -3.7164    0.7588    1.0936 H   0  0  0  0  0  0  0  0  0  0  0  0
   -3.2698    1.0210   -0.6054 H   0  0  0  0  0  0  0  0  0  0  0  0
   -4.9920    3.4638    1.7092 H   0  0  0  0  0  0  0  0  0  0  0  0
   -3.5412    4.3864    2.1121 H   0  0  0  0  0  0  0  0  0  0  0  0
   -3.7533    2.7430    2.7430 H   0  0  0  0  0  0  0  0  0  0  0  0
    0.1962    2.9485   -0.0950 H   0  0  0  0  0  0  0  0  0  0  0  0
   -0.5160    2.8587   -2.4490 H   0  0  0  0  0  0  0  0  0  0  0  0
   -1.2695    1.5130   -1.6051 H   0  0  0  0  0  0  0  0  0  0  0  0
   -2.2168    2.9525   -2.0114 H   0  0  0  0  0  0  0  0  0  0  0  0
   -1.8452    5.1595   -0.6836 H   0  0  0  0  0  0  0  0  0  0  0  0
   -0.4999    5.2452    0.4673 H   0  0  0  0  0  0  0  0  0  0  0  0
   -0.1751    5.1093   -1.2630 H   0  0  0  0  0  0  0  0  0  0  0  0
  1  2  1  0
  2  3  1  0
  4  3  1  6
  4  5  1  0
  4  6  2  0
  4  7  1  0
  7  8  1  0
  8  9  1  0
  9 10  1  0
 10 11  1  0
 11 12  1  0
 11 13  1  0
 10 14  1  0
 14 15  1  0
 14 16  1  0
  1 17  1  0
  1 18  1  0
  1 19  1  0
  2 20  1  0
  2 21  1  0
  5 22  1  0
  5 23  1  0
  5 24  1  0
  8 25  1  0
  8 26  1  0
  9 27  1  0
  9 28  1  0
 10 29  1  6
 11 30  1  1
 12 31  1  0
 12 32  1  0
 12 33  1  0
 13 34  1  0
 13 35  1  0
 13 36  1  0
 14 37  1  1
 15 38  1  0
 15 39  1  0
 15 40  1  0
 16 41  1  0
 16 42  1  0
 16 43  1  0
M  CHG  1  10   1
M  END
$$$$
