VX
     RDKit          3D

 43 42  0  0  0  0  0  0  0  0999 V2000
    2.3603   -1.0440   -1.9433 C   0  0  0  0  0  0  0  0  0  0  0  0
    3.5050   -0.5396   -1.0829 C   0  0  0  0  0  0  0  0  0  0  0  0
    3.0048   -0.1988    0.2011 O   0  0  0  0  0  0  0  0  0  0  0  0
    2.8319    1.3663    0.5707 P   0  0  1  0  0  0  0  0  0  0  0  0
    4.0395    2.1262    1.6400 C   0  0  0  0  0  0  0  0  0  0  0  0
    1.6887    2.1763    0.0359 O   0  0  0  0  0  0  0  0  0  0  0  0
    1.5350    0.7787    2.4528 S   0  0  0  0  0  0  0  0  0  0  0  0
    0.0764    0.0343    1.6859 C   0  0  0  0  0  0  0  0  0  0  0  0
   -1.1782    0.3072    2.5153 C   0  0  0  0  0  0  0  0  0  0  0  0
   -2.3266   -0.6429    2.0653 N   0  0  1  0  0  0  0  0  0  0  0  0
   -2.6608   -1.6782    3.1623 C   0  0  1  0  0  0  0  0  0  0  0  0
   -3.7821   -2.6201    2.7370 C   0  0  0  0  0  0  0  0  0  0  0  0
   -1.4172   -2.5283    3.4534 C   0  0  0  0  0  0  0  0  0  0  0  0
   -3.4601    0.1837    1.4363 C   0  0  1  0  0  0  0  0  0  0  0  0
   -4.2355   -0.6171    0.3919 C   0  0  0  0  0  0  0  0  0  0  0  0
   -4.3479    0.8292    2.4908 C   0  0  0  0  0  0  0  0  0  0  0  0
    2.7196   -1.3506   -2.9301 H   0  0  0  0  0  0  0  0  0  0  0  0
    1.8687   -1.8976   -1.4645 H   0  0  0  0  0  0  0  0  0  0  0  0
    1.5965   -0.2699   -2.0728 H   0  0  0  0  0  0  0  0  0  0  0  0
    3.9895    0.3197   -1.5576 H   0  0  0  0  0  0  0  0  0  0  0  0
    4.2512   -1.3312   -0.9563 H   0  0  0  0  0  0  0  0  0  0  0  0
    3.5852    2.9351    2.2228 H   0  0  0  0  0  0  0  0  0  0  0  0
    4.8676    2.5443    1.0616 H   0  0  0  0  0  0  0  0  0  0  0  0
    4.4465    1.3879    2.3342 H   0  0  0  0  0  0  0  0  0  0  0  0
   -0.0603    0.4550    0.6859 H   0  0  0  0  0  0  0  0  0  0  0  0
    0.2586   -1.0339    1.5676 H   0  0  0  0  0  0  0  0  0  0  0  0
   -1.5123    1.3430    2.3675 H   0  0  0  0  0  0  0  0  0  0  0  0
   -1.0322    0.1689    3.5936 H   0  0  0  0  0  0  0  0  0  0  0  0
   -1.9503   -1.2004    1.2842 H   0  0  0  0  0  0  0  0  0  0  0  0
   -2.9491   -1.1167    4.0612 H   0  0  0  0  0  0  0  0  0  0  0  0
   -4.7551   -2.1261    2.7590 H   0  0  0  0  0  0  0  0  0  0  0  0
   -3.8651   -3.4658    3.4249 H   0  0  0  0  0  0  0  0  0  0  0  0
   -3.6089   -3.0307    1.7380 H   0  0  0  0  0  0  0  0  0  0  0  0
   -1.0572   -3.0294    2.5490 H   0  0  0  0  0  0  0  0  0  0  0  0
   -0.5937   -1.9385    3.8648 H   0  0  0  0  0  0  0  0  0  0  0  0
   -1.6438   -3.3000    4.1947 H   0  0  0  0  0  0  0  0  0  0  0  0
   -2.9549    0.9777    0.8687 H   0  0  0  0  0  0  0  0  0  0  0  0
   -5.0229   -1.2386    0.8223 H   0  0  0  0  0  0  0  0  0  0  0  0
   -3.5793   -1.2478   -0.2156 H   0  0  0  0  0  0  0  0  0  0  0  0
   -4.7409    0.0740   -0.2904 H   0  0  0  0  0  0  0  0  0  0  0  0
   -5.1258    1.4306    2.0064 H   0  0  0  0  0  0  0  0  0  0  0  0
   -3.7744    1.4954    3.1430 H   0  0  0  0  0  0  0  0  0  0  0  0
   -4.8528    0.0928    3.1259 H   0  0  0  0  0  0  0  0  0  0  0  0
  1  2  1  0
  2  3  1  0
  4  3  1  6
  4  5  1  0
  4  6  2  0
  4  7  1  0
  7  8  1  0
  8  9  1  0
  9 10  1  0
 10 11  1  0
 11 12  1  0
 11 13  1  0
 10 14  1  0
 14 15  1  0
 14 16  1  0
  1 17  1  0
  1 18  1  0
  1 19  1  0
  2 20  1  0
  2 21  1  0
  5 22  1  0
  5 23  1  0
  5 24  1  0
  8 25  1  0
  8 26  1  0
  9 27  1  0
  9 28  1  0
 10 29  1  1
 11 30  1  6
 12 31  1  0
 12 32  1  0
 12 33  1  0
 13 34  1  0
 13 35  1  0
 13 36  1  0
 14 37  1  1
 15 38  1  0
 15 39  1  0
 15 40  1  0
 16 41  1  0
 16 42  1  0
 16 43  1  0
M  CHG  1  10   1
M  END
$$$$
