VX
     RDKit          3D

 43 42  0  0  0  0  0  0  0  0999 V2000
    4.4184   -0.2878   -1.7720 C   0  0  0  0  0  0  0  0  0  0  0  0
    3.0757   -0.6091   -1.1503 C   0  0  0  0  0  0  0  0  0  0  0  0
    3.0107   -0.1952    0.2063 O   0  0  0  0  0  0  0  0  0  0  0  0
    2.8302    1.3651    0.5692 P   0  0  1  0  0  0  0  0  0  0  0  0
    4.0386    2.1195    1.6373 C   0  0  0  0  0  0  0  0  0  0  0  0
    1.6855    2.1806    0.0350 O   0  0  0  0  0  0  0  0  0  0  0  0
    1.5333    0.7774    2.4513 S   0  0  0  0  0  0  0  0  0  0  0  0
    0.1293   -0.1129    1.7082 C   0  0  0  0  0  0  0  0  0  0  0  0
   -1.2070    0.5255    2.1033 C   0  0  0  0  0  0  0  0  0  0  0  0
   -1.2771    2.0177    1.7650 N   0  0  2  0  0  0  0  0  0  0  0  0
   -2.1592    2.8460    2.7094 C   0  0  1  0  0  0  0  0  0  0  0  0
   -3.4578    2.1340    3.0857 C   0  0  0  0  0  0  0  0  0  0  0  0
   -1.3452    3.2093    3.9515 C   0  0  0  0  0  0  0  0  0  0  0  0
   -1.4306    2.3204    0.2657 C   0  0  1  0  0  0  0  0  0  0  0  0
   -2.8479    2.0728   -0.2359 C   0  0  0  0  0  0  0  0  0  0  0  0
   -0.9774    3.7512   -0.0314 C   0  0  0  0  0  0  0  0  0  0  0  0
    4.5093   -0.7549   -2.7572 H   0  0  0  0  0  0  0  0  0  0  0  0
    5.2378   -0.6362   -1.1350 H   0  0  0  0  0  0  0  0  0  0  0  0
    4.5385    0.7919   -1.8987 H   0  0  0  0  0  0  0  0  0  0  0  0
    2.2576   -0.1584   -1.7209 H   0  0  0  0  0  0  0  0  0  0  0  0
    2.9208   -1.6927   -1.1626 H   0  0  0  0  0  0  0  0  0  0  0  0
    4.4681    1.3783    2.3173 H   0  0  0  0  0  0  0  0  0  0  0  0
    3.5754    2.9066    2.2394 H   0  0  0  0  0  0  0  0  0  0  0  0
    4.8535    2.5708    1.0681 H   0  0  0  0  0  0  0  0  0  0  0  0
    0.2429   -0.1431    0.6212 H   0  0  0  0  0  0  0  0  0  0  0  0
    0.1577   -1.1485    2.0622 H   0  0  0  0  0  0  0  0  0  0  0  0
   -1.3295    0.4273    3.1867 H   0  0  0  0  0  0  0  0  0  0  0  0
   -2.0484    0.0269    1.6143 H   0  0  0  0  0  0  0  0  0  0  0  0
   -0.3144    2.3375    1.9591 H   0  0  0  0  0  0  0  0  0  0  0  0
   -2.4061    3.7747    2.1887 H   0  0  0  0  0  0  0  0  0  0  0  0
   -3.9974    1.7573    2.2142 H   0  0  0  0  0  0  0  0  0  0  0  0
   -3.2901    1.2958    3.7691 H   0  0  0  0  0  0  0  0  0  0  0  0
   -4.1242    2.8338    3.6023 H   0  0  0  0  0  0  0  0  0  0  0  0
   -1.9356    3.8409    4.6245 H   0  0  0  0  0  0  0  0  0  0  0  0
   -0.4439    3.7694    3.6794 H   0  0  0  0  0  0  0  0  0  0  0  0
   -1.0369    2.3215    4.5133 H   0  0  0  0  0  0  0  0  0  0  0  0
   -0.7532    1.6349   -0.2502 H   0  0  0  0  0  0  0  0  0  0  0  0
   -3.1887    1.0573   -0.0162 H   0  0  0  0  0  0  0  0  0  0  0  0
   -3.5641    2.7820    0.1905 H   0  0  0  0  0  0  0  0  0  0  0  0
   -2.8855    2.1965   -1.3241 H   0  0  0  0  0  0  0  0  0  0  0  0
   -0.8359    3.8815   -1.1099 H   0  0  0  0  0  0  0  0  0  0  0  0
   -0.0296    3.9896    0.4604 H   0  0  0  0  0  0  0  0  0  0  0  0
   -1.7158    4.4949    0.2839 H   0  0  0  0  0  0  0  0  0  0  0  0
  1  2  1  0
  2  3  1  0
  4  3  1  6
  4  5  1  0
  4  6  2  0
  4  7  1  0
  7  8  1  0
  8  9  1  0
  9 10  1  0
 10 11  1  0
 11 12  1  0
 11 13  1  0
 10 14  1  0
 14 15  1  0
 14 16  1  0
  1 17  1  0
  1 18  1  0
  1 19  1  0
  2 20  1  0
  2 21  1  0
  5 22  1  0
  5 23  1  0
  5 24  1  0
  8 25  1  0
  8 26  1  0
  9 27  1  0
  9 28  1  0
 10 29  1  1
 11 30  1  1
 12 31  1  0
 12 32  1  0
 12 33  1  0
 13 34  1  0
 13 35  1  0
 13 36  1  0
 14 37  1  1
 15 38  1  0
 15 39  1  0
 15 40  1  0
 16 41  1  0
 16 42  1  0
 16 43  1  0
M  CHG  1  10   1
M  END
$$$$
