VX
     RDKit          3D

 43 42  0  0  0  0  0  0  0  0999 V2000
    2.4920   -1.0568   -1.9741 C   0  0  0  0  0  0  0  0  0  0  0  0
    3.5758   -0.5335   -1.0547 C   0  0  0  0  0  0  0  0  0  0  0  0
    3.0080   -0.1992    0.2032 O   0  0  0  0  0  0  0  0  0  0  0  0
    2.8308    1.3657    0.5697 P   0  0  1  0  0  0  0  0  0  0  0  0
    4.0409    2.1240    1.6403 C   0  0  0  0  0  0  0  0  0  0  0  0
    1.6853    2.1797    0.0346 O   0  0  0  0  0  0  0  0  0  0  0  0
    1.5339    0.7780    2.4518 S   0  0  0  0  0  0  0  0  0  0  0  0
    0.0396    0.0858    1.6948 C   0  0  0  0  0  0  0  0  0  0  0  0
   -1.1630    0.3051    2.6162 C   0  0  0  0  0  0  0  0  0  0  0  0
   -2.4152   -0.4429    2.1278 N   0  0  1  0  0  0  0  0  0  0  0  0
   -3.4509   -0.7165    3.2369 C   0  0  2  0  0  0  0  0  0  0  0  0
   -3.6022    0.4473    4.2129 C   0  0  0  0  0  0  0  0  0  0  0  0
   -3.0534   -2.0006    3.9667 C   0  0  0  0  0  0  0  0  0  0  0  0
   -2.9880    0.0894    0.8036 C   0  0  2  0  0  0  0  0  0  0  0  0
   -3.7738    1.3792    0.9784 C   0  0  0  0  0  0  0  0  0  0  0  0
   -3.8170   -0.9996    0.1201 C   0  0  0  0  0  0  0  0  0  0  0  0
    2.9141   -1.3512   -2.9405 H   0  0  0  0  0  0  0  0  0  0  0  0
    1.9964   -1.9249   -1.5267 H   0  0  0  0  0  0  0  0  0  0  0  0
    1.7184   -0.3039   -2.1421 H   0  0  0  0  0  0  0  0  0  0  0  0
    4.0728    0.3303   -1.5083 H   0  0  0  0  0  0  0  0  0  0  0  0
    4.3294   -1.3068   -0.8884 H   0  0  0  0  0  0  0  0  0  0  0  0
    4.8619    2.5457    1.0570 H   0  0  0  0  0  0  0  0  0  0  0  0
    3.5853    2.9359    2.2153 H   0  0  0  0  0  0  0  0  0  0  0  0
    4.4554    1.3948    2.3425 H   0  0  0  0  0  0  0  0  0  0  0  0
   -0.1175    0.5720    0.7308 H   0  0  0  0  0  0  0  0  0  0  0  0
    0.2081   -0.9811    1.5129 H   0  0  0  0  0  0  0  0  0  0  0  0
   -1.4245    1.3633    2.7027 H   0  0  0  0  0  0  0  0  0  0  0  0
   -0.9339   -0.0962    3.6088 H   0  0  0  0  0  0  0  0  0  0  0  0
   -2.0620   -1.3769    1.8798 H   0  0  0  0  0  0  0  0  0  0  0  0
   -4.4105   -0.8977    2.7447 H   0  0  0  0  0  0  0  0  0  0  0  0
   -2.7149    0.5818    4.8401 H   0  0  0  0  0  0  0  0  0  0  0  0
   -3.8106    1.3945    3.7052 H   0  0  0  0  0  0  0  0  0  0  0  0
   -4.4400    0.2531    4.8926 H   0  0  0  0  0  0  0  0  0  0  0  0
   -3.7834   -2.2455    4.7469 H   0  0  0  0  0  0  0  0  0  0  0  0
   -3.0165   -2.8473    3.2750 H   0  0  0  0  0  0  0  0  0  0  0  0
   -2.0726   -1.9126    4.4451 H   0  0  0  0  0  0  0  0  0  0  0  0
   -2.1303    0.2865    0.1543 H   0  0  0  0  0  0  0  0  0  0  0  0
   -4.0757    1.7670   -0.0016 H   0  0  0  0  0  0  0  0  0  0  0  0
   -4.6905    1.2285    1.5566 H   0  0  0  0  0  0  0  0  0  0  0  0
   -3.1766    2.1550    1.4634 H   0  0  0  0  0  0  0  0  0  0  0  0
   -4.0637   -0.6920   -0.9020 H   0  0  0  0  0  0  0  0  0  0  0  0
   -4.7629   -1.1918    0.6336 H   0  0  0  0  0  0  0  0  0  0  0  0
   -3.2627   -1.9425    0.0556 H   0  0  0  0  0  0  0  0  0  0  0  0
  1  2  1  0
  2  3  1  0
  4  3  1  6
  4  5  1  0
  4  6  2  0
  4  7  1  0
  7  8  1  0
  8  9  1  0
  9 10  1  0
 10 11  1  0
 11 12  1  0
 11 13  1  0
 10 14  1  0
 14 15  1  0
 14 16  1  0
  1 17  1  0
  1 18  1  0
  1 19  1  0
  2 20  1  0
  2 21  1  0
  5 22  1  0
  5 23  1  0
  5 24  1  0
  8 25  1  0
  8 26  1  0
  9 27  1  0
  9 28  1  0
 10 29  1  1
 11 30  1  6
 12 31  1  0
 12 32  1  0
 12 33  1  0
 13 34  1  0
 13 35  1  0
 13 36  1  0
 14 37  1  6
 15 38  1  0
 15 39  1  0
 15 40  1  0
 16 41  1  0
 16 42  1  0
 16 43  1  0
M  CHG  1  10   1
M  END
$$$$
