VX
     RDKit          3D

 43 42  0  0  0  0  0  0  0  0999 V2000
    3.1177   -1.8418   -1.5233 C   0  0  0  0  0  0  0  0  0  0  0  0
    3.6798   -0.5328   -1.0034 C   0  0  0  0  0  0  0  0  0  0  0  0
    3.0077   -0.1983    0.2033 O   0  0  0  0  0  0  0  0  0  0  0  0
    2.8307    1.3665    0.5699 P   0  0  1  0  0  0  0  0  0  0  0  0
    4.0387    2.1234    1.6386 C   0  0  0  0  0  0  0  0  0  0  0  0
    1.6879    2.1785    0.0360 O   0  0  0  0  0  0  0  0  0  0  0  0
    1.5338    0.7788    2.4520 S   0  0  0  0  0  0  0  0  0  0  0  0
   -0.0339    0.2847    1.6649 C   0  0  0  0  0  0  0  0  0  0  0  0
   -1.1128   -0.1272    2.6752 C   0  0  0  0  0  0  0  0  0  0  0  0
   -0.5462   -0.9653    3.8394 N   0  0  1  0  0  0  0  0  0  0  0  0
   -1.0414   -0.4547    5.2161 C   0  0  1  0  0  0  0  0  0  0  0  0
   -0.6185   -1.3864    6.3557 C   0  0  0  0  0  0  0  0  0  0  0  0
   -0.4559    0.9344    5.5029 C   0  0  0  0  0  0  0  0  0  0  0  0
   -0.6432   -2.4840    3.6306 C   0  0  2  0  0  0  0  0  0  0  0  0
    0.0947   -2.9173    2.3668 C   0  0  0  0  0  0  0  0  0  0  0  0
   -2.0904   -2.9694    3.6263 C   0  0  0  0  0  0  0  0  0  0  0  0
    3.2249   -2.6326   -0.7738 H   0  0  0  0  0  0  0  0  0  0  0  0
    3.6297   -2.1508   -2.4387 H   0  0  0  0  0  0  0  0  0  0  0  0
    2.0466   -1.7433   -1.7320 H   0  0  0  0  0  0  0  0  0  0  0  0
    4.7498   -0.6392   -0.7873 H   0  0  0  0  0  0  0  0  0  0  0  0
    3.5494    0.2573   -1.7516 H   0  0  0  0  0  0  0  0  0  0  0  0
    3.5901    2.9497    2.1982 H   0  0  0  0  0  0  0  0  0  0  0  0
    4.8760    2.5227    1.0593 H   0  0  0  0  0  0  0  0  0  0  0  0
    4.4324    1.3963    2.3567 H   0  0  0  0  0  0  0  0  0  0  0  0
    0.1815   -0.5332    0.9717 H   0  0  0  0  0  0  0  0  0  0  0  0
   -0.4097    1.1190    1.0626 H   0  0  0  0  0  0  0  0  0  0  0  0
   -1.9134   -0.6906    2.1893 H   0  0  0  0  0  0  0  0  0  0  0  0
   -1.5792    0.7684    3.0955 H   0  0  0  0  0  0  0  0  0  0  0  0
    0.4647   -0.7493    3.8402 H   0  0  0  0  0  0  0  0  0  0  0  0
   -2.1341   -0.4017    5.1571 H   0  0  0  0  0  0  0  0  0  0  0  0
   -1.1490   -2.3422    6.3209 H   0  0  0  0  0  0  0  0  0  0  0  0
    0.4594   -1.5806    6.3385 H   0  0  0  0  0  0  0  0  0  0  0  0
   -0.8609   -0.9387    7.3279 H   0  0  0  0  0  0  0  0  0  0  0  0
   -0.8303    1.3077    6.4610 H   0  0  0  0  0  0  0  0  0  0  0  0
   -0.7286    1.6795    4.7524 H   0  0  0  0  0  0  0  0  0  0  0  0
    0.6366    0.9028    5.5686 H   0  0  0  0  0  0  0  0  0  0  0  0
   -0.1061   -2.9393    4.4672 H   0  0  0  0  0  0  0  0  0  0  0  0
    1.1072   -2.5034    2.3321 H   0  0  0  0  0  0  0  0  0  0  0  0
   -0.4396   -2.6272    1.4585 H   0  0  0  0  0  0  0  0  0  0  0  0
    0.1907   -4.0080    2.3460 H   0  0  0  0  0  0  0  0  0  0  0  0
   -2.6301   -2.6574    2.7279 H   0  0  0  0  0  0  0  0  0  0  0  0
   -2.6524   -2.6199    4.4970 H   0  0  0  0  0  0  0  0  0  0  0  0
   -2.1127   -4.0651    3.6457 H   0  0  0  0  0  0  0  0  0  0  0  0
  1  2  1  0
  2  3  1  0
  4  3  1  6
  4  5  1  0
  4  6  2  0
  4  7  1  0
  7  8  1  0
  8  9  1  0
  9 10  1  0
 10 11  1  0
 11 12  1  0
 11 13  1  0
 10 14  1  0
 14 15  1  0
 14 16  1  0
  1 17  1  0
  1 18  1  0
  1 19  1  0
  2 20  1  0
  2 21  1  0
  5 22  1  0
  5 23  1  0
  5 24  1  0
  8 25  1  0
  8 26  1  0
  9 27  1  0
  9 28  1  0
 10 29  1  6
 11 30  1  1
 12 31  1  0
 12 32  1  0
 12 33  1  0
 13 34  1  0
 13 35  1  0
 13 36  1  0
 14 37  1  1
 15 38  1  0
 15 39  1  0
 15 40  1  0
 16 41  1  0
 16 42  1  0
 16 43  1  0
M  CHG  1  10   1
M  END
$$$$
