VX
     RDKit          3D

 43 42  0  0  0  0  0  0  0  0999 V2000
    3.5422   -2.0388   -1.2115 C   0  0  0  0  0  0  0  0  0  0  0  0
    3.5540   -0.5311   -1.0633 C   0  0  0  0  0  0  0  0  0  0  0  0
    3.0058   -0.1957    0.2028 O   0  0  0  0  0  0  0  0  0  0  0  0
    2.8329    1.3649    0.5709 P   0  0  1  0  0  0  0  0  0  0  0  0
    4.0393    2.1238    1.6392 C   0  0  0  0  0  0  0  0  0  0  0  0
    1.6869    2.1770    0.0348 O   0  0  0  0  0  0  0  0  0  0  0  0
    1.5360    0.7772    2.4530 S   0  0  0  0  0  0  0  0  0  0  0  0
    0.5885    2.2879    2.8216 C   0  0  0  0  0  0  0  0  0  0  0  0
   -0.9224    2.0199    2.7919 C   0  0  0  0  0  0  0  0  0  0  0  0
   -1.3659    1.2554    1.5295 N   0  0  1  0  0  0  0  0  0  0  0  0
   -2.4533    0.2282    1.8547 C   0  0  2  0  0  0  0  0  0  0  0  0
   -2.7304   -0.7143    0.6931 C   0  0  0  0  0  0  0  0  0  0  0  0
   -3.7330    0.8493    2.4082 C   0  0  0  0  0  0  0  0  0  0  0  0
   -1.4451    2.1644    0.2956 C   0  0  2  0  0  0  0  0  0  0  0  0
   -2.7636    2.9127    0.1819 C   0  0  0  0  0  0  0  0  0  0  0  0
   -1.1039    1.4037   -0.9842 C   0  0  0  0  0  0  0  0  0  0  0  0
    2.5198   -2.4252   -1.1366 H   0  0  0  0  0  0  0  0  0  0  0  0
    4.1202   -2.5107   -0.4097 H   0  0  0  0  0  0  0  0  0  0  0  0
    3.9637   -2.3393   -2.1748 H   0  0  0  0  0  0  0  0  0  0  0  0
    2.9538   -0.0713   -1.8552 H   0  0  0  0  0  0  0  0  0  0  0  0
    4.5796   -0.1549   -1.1292 H   0  0  0  0  0  0  0  0  0  0  0  0
    3.5783    2.9228    2.2271 H   0  0  0  0  0  0  0  0  0  0  0  0
    4.4620    1.3896    2.3307 H   0  0  0  0  0  0  0  0  0  0  0  0
    4.8572    2.5607    1.0601 H   0  0  0  0  0  0  0  0  0  0  0  0
    0.8769    2.6425    3.8166 H   0  0  0  0  0  0  0  0  0  0  0  0
    0.8543    3.0789    2.1158 H   0  0  0  0  0  0  0  0  0  0  0  0
   -1.4981    2.9493    2.8441 H   0  0  0  0  0  0  0  0  0  0  0  0
   -1.1862    1.4035    3.6592 H   0  0  0  0  0  0  0  0  0  0  0  0
   -0.5422    0.6616    1.3393 H   0  0  0  0  0  0  0  0  0  0  0  0
   -2.0110   -0.3839    2.6516 H   0  0  0  0  0  0  0  0  0  0  0  0
   -1.8042   -1.1089    0.2638 H   0  0  0  0  0  0  0  0  0  0  0  0
   -3.3172   -0.2327   -0.0935 H   0  0  0  0  0  0  0  0  0  0  0  0
   -3.3180   -1.5718    1.0403 H   0  0  0  0  0  0  0  0  0  0  0  0
   -4.3479    1.3108    1.6332 H   0  0  0  0  0  0  0  0  0  0  0  0
   -3.5378    1.5948    3.1838 H   0  0  0  0  0  0  0  0  0  0  0  0
   -4.3506    0.0672    2.8653 H   0  0  0  0  0  0  0  0  0  0  0  0
   -0.6571    2.9101    0.4395 H   0  0  0  0  0  0  0  0  0  0  0  0
   -2.6774    3.7031   -0.5728 H   0  0  0  0  0  0  0  0  0  0  0  0
   -3.5774    2.2600   -0.1450 H   0  0  0  0  0  0  0  0  0  0  0  0
   -3.0453    3.3943    1.1225 H   0  0  0  0  0  0  0  0  0  0  0  0
   -1.9524    0.8398   -1.3779 H   0  0  0  0  0  0  0  0  0  0  0  0
   -0.2680    0.7122   -0.8430 H   0  0  0  0  0  0  0  0  0  0  0  0
   -0.8157    2.1130   -1.7685 H   0  0  0  0  0  0  0  0  0  0  0  0
  1  2  1  0
  2  3  1  0
  4  3  1  6
  4  5  1  0
  4  6  2  0
  4  7  1  0
  7  8  1  0
  8  9  1  0
  9 10  1  0
 10 11  1  0
 11 12  1  0
 11 13  1  0
 10 14  1  0
 14 15  1  0
 14 16  1  0
  1 17  1  0
  1 18  1  0
  1 19  1  0
  2 20  1  0
  2 21  1  0
  5 22  1  0
  5 23  1  0
  5 24  1  0
  8 25  1  0
  8 26  1  0
  9 27  1  0
  9 28  1  0
 10 29  1  1
 11 30  1  1
 12 31  1  0
 12 32  1  0
 12 33  1  0
 13 34  1  0
 13 35  1  0
 13 36  1  0
 14 37  1  1
 15 38  1  0
 15 39  1  0
 15 40  1  0
 16 41  1  0
 16 42  1  0
 16 43  1  0
M  CHG  1  10   1
M  END
$$$$
