VX
     RDKit          3D

 43 42  0  0  0  0  0  0  0  0999 V2000
    3.6627   -2.0335   -1.1716 C   0  0  0  0  0  0  0  0  0  0  0  0
    3.5291   -0.5269   -1.0777 C   0  0  0  0  0  0  0  0  0  0  0  0
    3.0004   -0.1978    0.1984 O   0  0  0  0  0  0  0  0  0  0  0  0
    2.8361    1.3653    0.5732 P   0  0  1  0  0  0  0  0  0  0  0  0
    4.0398    2.1292    1.6412 C   0  0  0  0  0  0  0  0  0  0  0  0
    1.6887    2.1734    0.0349 O   0  0  0  0  0  0  0  0  0  0  0  0
    1.5392    0.7776    2.4553 S   0  0  0  0  0  0  0  0  0  0  0  0
    0.0294    0.0906    1.7262 C   0  0  0  0  0  0  0  0  0  0  0  0
   -0.8972    1.1920    1.1977 C   0  0  0  0  0  0  0  0  0  0  0  0
   -2.1865    0.5635    0.5898 N   0  0  1  0  0  0  0  0  0  0  0  0
   -3.4090    1.0440    1.3935 C   0  0  2  0  0  0  0  0  0  0  0  0
   -4.5255    0.0033    1.4020 C   0  0  0  0  0  0  0  0  0  0  0  0
   -3.8644    2.4336    0.9655 C   0  0  0  0  0  0  0  0  0  0  0  0
   -2.2026    0.7085   -0.9514 C   0  0  2  0  0  0  0  0  0  0  0  0
   -3.4476    0.0790   -1.5715 C   0  0  0  0  0  0  0  0  0  0  0  0
   -0.9772   -0.0006   -1.5464 C   0  0  0  0  0  0  0  0  0  0  0  0
    2.6963   -2.5226   -1.0007 H   0  0  0  0  0  0  0  0  0  0  0  0
    4.0421   -2.3315   -2.1529 H   0  0  0  0  0  0  0  0  0  0  0  0
    4.3477   -2.4068   -0.4013 H   0  0  0  0  0  0  0  0  0  0  0  0
    4.5077   -0.0534   -1.2090 H   0  0  0  0  0  0  0  0  0  0  0  0
    2.8487   -0.1602   -1.8538 H   0  0  0  0  0  0  0  0  0  0  0  0
    4.4569    1.3991    2.3410 H   0  0  0  0  0  0  0  0  0  0  0  0
    3.5774    2.9341    2.2205 H   0  0  0  0  0  0  0  0  0  0  0  0
    4.8624    2.5603    1.0640 H   0  0  0  0  0  0  0  0  0  0  0  0
    0.3098   -0.6105    0.9347 H   0  0  0  0  0  0  0  0  0  0  0  0
   -0.4869   -0.4831    2.5034 H   0  0  0  0  0  0  0  0  0  0  0  0
   -0.4518    1.8228    0.4279 H   0  0  0  0  0  0  0  0  0  0  0  0
   -1.1932    1.8589    2.0160 H   0  0  0  0  0  0  0  0  0  0  0  0
   -2.1316   -0.4481    0.7640 H   0  0  0  0  0  0  0  0  0  0  0  0
   -3.0664    1.0978    2.4348 H   0  0  0  0  0  0  0  0  0  0  0  0
   -5.2425    0.2411    2.1965 H   0  0  0  0  0  0  0  0  0  0  0  0
   -5.0984   -0.0302    0.4745 H   0  0  0  0  0  0  0  0  0  0  0  0
   -4.1342   -0.9990    1.6070 H   0  0  0  0  0  0  0  0  0  0  0  0
   -4.6508    2.7945    1.6376 H   0  0  0  0  0  0  0  0  0  0  0  0
   -3.0411    3.1539    1.0073 H   0  0  0  0  0  0  0  0  0  0  0  0
   -4.2749    2.4483   -0.0465 H   0  0  0  0  0  0  0  0  0  0  0  0
   -2.1645    1.7804   -1.1747 H   0  0  0  0  0  0  0  0  0  0  0  0
   -3.3570    0.0386   -2.6641 H   0  0  0  0  0  0  0  0  0  0  0  0
   -4.3451    0.6691   -1.3737 H   0  0  0  0  0  0  0  0  0  0  0  0
   -3.6033   -0.9450   -1.2162 H   0  0  0  0  0  0  0  0  0  0  0  0
   -1.0056    0.0349   -2.6415 H   0  0  0  0  0  0  0  0  0  0  0  0
   -0.9431   -1.0544   -1.2481 H   0  0  0  0  0  0  0  0  0  0  0  0
   -0.0368    0.4684   -1.2495 H   0  0  0  0  0  0  0  0  0  0  0  0
  1  2  1  0
  2  3  1  0
  4  3  1  6
  4  5  1  0
  4  6  2  0
  4  7  1  0
  7  8  1  0
  8  9  1  0
  9 10  1  0
 10 11  1  0
 11 12  1  0
 11 13  1  0
 10 14  1  0
 14 15  1  0
 14 16  1  0
  1 17  1  0
  1 18  1  0
  1 19  1  0
  2 20  1  0
  2 21  1  0
  5 22  1  0
  5 23  1  0
  5 24  1  0
  8 25  1  0
  8 26  1  0
  9 27  1  0
  9 28  1  0
 10 29  1  1
 11 30  1  1
 12 31  1  0
 12 32  1  0
 12 33  1  0
 13 34  1  0
 13 35  1  0
 13 36  1  0
 14 37  1  1
 15 38  1  0
 15 39  1  0
 15 40  1  0
 16 41  1  0
 16 42  1  0
 16 43  1  0
M  CHG  1  10   1
M  END
$$$$
