VX
     RDKit          3D

 43 42  0  0  0  0  0  0  0  0999 V2000
    3.4403   -2.0141   -1.2773 C   0  0  0  0  0  0  0  0  0  0  0  0
    3.6342   -0.5322   -1.0283 C   0  0  0  0  0  0  0  0  0  0  0  0
    3.0072   -0.1974    0.2032 O   0  0  0  0  0  0  0  0  0  0  0  0
    2.8323    1.3657    0.5708 P   0  0  1  0  0  0  0  0  0  0  0  0
    4.0387    2.1232    1.6386 C   0  0  0  0  0  0  0  0  0  0  0  0
    1.6867    2.1786    0.0352 O   0  0  0  0  0  0  0  0  0  0  0  0
    1.5354    0.7780    2.4529 S   0  0  0  0  0  0  0  0  0  0  0  0
    0.3684   -0.4544    1.8105 C   0  0  0  0  0  0  0  0  0  0  0  0
   -1.0713   -0.3011    2.3181 C   0  0  0  0  0  0  0  0  0  0  0  0
   -1.9479    0.7466    1.5978 N   0  0  2  0  0  0  0  0  0  0  0  0
   -2.2006    0.3464    0.1264 C   0  0  2  0  0  0  0  0  0  0  0  0
   -1.3393    1.1000   -0.8807 C   0  0  0  0  0  0  0  0  0  0  0  0
   -3.6902    0.4240   -0.1990 C   0  0  0  0  0  0  0  0  0  0  0  0
   -1.6323    2.2246    1.9120 C   0  0  1  0  0  0  0  0  0  0  0  0
   -2.7700    3.1317    1.4308 C   0  0  0  0  0  0  0  0  0  0  0  0
   -1.5209    2.4385    3.4286 C   0  0  0  0  0  0  0  0  0  0  0  0
    2.3767   -2.2662   -1.2998 H   0  0  0  0  0  0  0  0  0  0  0  0
    3.8916   -2.6030   -0.4708 H   0  0  0  0  0  0  0  0  0  0  0  0
    3.8919   -2.3119   -2.2272 H   0  0  0  0  0  0  0  0  0  0  0  0
    4.7023   -0.3000   -0.9658 H   0  0  0  0  0  0  0  0  0  0  0  0
    3.1912    0.0430   -1.8455 H   0  0  0  0  0  0  0  0  0  0  0  0
    4.8906    2.5064    1.0687 H   0  0  0  0  0  0  0  0  0  0  0  0
    4.4158    1.3979    2.3662 H   0  0  0  0  0  0  0  0  0  0  0  0
    3.5980    2.9603    2.1852 H   0  0  0  0  0  0  0  0  0  0  0  0
    0.4114   -0.4826    0.7177 H   0  0  0  0  0  0  0  0  0  0  0  0
    0.7504   -1.4239    2.1518 H   0  0  0  0  0  0  0  0  0  0  0  0
   -1.1238   -0.1099    3.3924 H   0  0  0  0  0  0  0  0  0  0  0  0
   -1.5985   -1.2521    2.1681 H   0  0  0  0  0  0  0  0  0  0  0  0
   -2.8579    0.6098    2.0555 H   0  0  0  0  0  0  0  0  0  0  0  0
   -1.9358   -0.7156    0.0592 H   0  0  0  0  0  0  0  0  0  0  0  0
   -1.4642    0.6624   -1.8763 H   0  0  0  0  0  0  0  0  0  0  0  0
   -0.2799    1.0310   -0.6373 H   0  0  0  0  0  0  0  0  0  0  0  0
   -1.5976    2.1550   -0.9712 H   0  0  0  0  0  0  0  0  0  0  0  0
   -4.2727   -0.1808    0.4996 H   0  0  0  0  0  0  0  0  0  0  0  0
   -4.0812    1.4408   -0.1730 H   0  0  0  0  0  0  0  0  0  0  0  0
   -3.8745    0.0321   -1.2034 H   0  0  0  0  0  0  0  0  0  0  0  0
   -0.7036    2.4828    1.4091 H   0  0  0  0  0  0  0  0  0  0  0  0
   -3.7398    2.8053    1.8204 H   0  0  0  0  0  0  0  0  0  0  0  0
   -2.8358    3.1842    0.3465 H   0  0  0  0  0  0  0  0  0  0  0  0
   -2.6142    4.1622    1.7683 H   0  0  0  0  0  0  0  0  0  0  0  0
   -1.4372    3.5052    3.6643 H   0  0  0  0  0  0  0  0  0  0  0  0
   -2.4019    2.0509    3.9541 H   0  0  0  0  0  0  0  0  0  0  0  0
   -0.6359    1.9658    3.8577 H   0  0  0  0  0  0  0  0  0  0  0  0
  1  2  1  0
  2  3  1  0
  4  3  1  6
  4  5  1  0
  4  6  2  0
  4  7  1  0
  7  8  1  0
  8  9  1  0
  9 10  1  0
 10 11  1  0
 11 12  1  0
 11 13  1  0
 10 14  1  0
 14 15  1  0
 14 16  1  0
  1 17  1  0
  1 18  1  0
  1 19  1  0
  2 20  1  0
  2 21  1  0
  5 22  1  0
  5 23  1  0
  5 24  1  0
  8 25  1  0
  8 26  1  0
  9 27  1  0
  9 28  1  0
 10 29  1  1
 11 30  1  1
 12 31  1  0
 12 32  1  0
 12 33  1  0
 13 34  1  0
 13 35  1  0
 13 36  1  0
 14 37  1  1
 15 38  1  0
 15 39  1  0
 15 40  1  0
 16 41  1  0
 16 42  1  0
 16 43  1  0
M  CHG  1  10   1
M  END
$$$$
