VX
     RDKit          3D

 43 42  0  0  0  0  0  0  0  0999 V2000
    2.4755   -1.1432   -1.9290 C   0  0  0  0  0  0  0  0  0  0  0  0
    3.5601   -0.5338   -1.0657 C   0  0  0  0  0  0  0  0  0  0  0  0
    3.0062   -0.2009    0.2014 O   0  0  0  0  0  0  0  0  0  0  0  0
    2.8311    1.3671    0.5704 P   0  0  1  0  0  0  0  0  0  0  0  0
    4.0394    2.1259    1.6399 C   0  0  0  0  0  0  0  0  0  0  0  0
    1.6882    2.1780    0.0361 O   0  0  0  0  0  0  0  0  0  0  0  0
    1.5342    0.7794    2.4525 S   0  0  0  0  0  0  0  0  0  0  0  0
    1.5510   -1.0309    2.4991 C   0  0  0  0  0  0  0  0  0  0  0  0
    0.5155   -1.7628    1.6223 C   0  0  0  0  0  0  0  0  0  0  0  0
   -0.9809   -1.4217    1.8652 N   0  0  1  0  0  0  0  0  0  0  0  0
   -1.3191   -1.4020    3.3837 C   0  0  2  0  0  0  0  0  0  0  0  0
   -1.0625   -2.7945    3.9760 C   0  0  0  0  0  0  0  0  0  0  0  0
   -2.7617   -1.0190    3.6903 C   0  0  0  0  0  0  0  0  0  0  0  0
   -1.5448   -0.2345    1.0232 C   0  0  1  0  0  0  0  0  0  0  0  0
   -0.8027   -0.0395   -0.3034 C   0  0  0  0  0  0  0  0  0  0  0  0
   -3.0036   -0.5233    0.6244 C   0  0  0  0  0  0  0  0  0  0  0  0
    1.6678   -0.4243   -2.0988 H   0  0  0  0  0  0  0  0  0  0  0  0
    2.0301   -2.0113   -1.4333 H   0  0  0  0  0  0  0  0  0  0  0  0
    2.8762   -1.4554   -2.8972 H   0  0  0  0  0  0  0  0  0  0  0  0
    3.9911    0.3448   -1.5543 H   0  0  0  0  0  0  0  0  0  0  0  0
    4.3629   -1.2581   -0.9003 H   0  0  0  0  0  0  0  0  0  0  0  0
    3.5874    2.9461    2.2055 H   0  0  0  0  0  0  0  0  0  0  0  0
    4.8756    2.5314    1.0639 H   0  0  0  0  0  0  0  0  0  0  0  0
    4.4362    1.3957    2.3514 H   0  0  0  0  0  0  0  0  0  0  0  0
    1.4355   -1.3255    3.5458 H   0  0  0  0  0  0  0  0  0  0  0  0
    2.5530   -1.3716    2.2174 H   0  0  0  0  0  0  0  0  0  0  0  0
    0.7376   -1.6705    0.5582 H   0  0  0  0  0  0  0  0  0  0  0  0
    0.5948   -2.8383    1.8217 H   0  0  0  0  0  0  0  0  0  0  0  0
   -1.4792   -2.2384    1.4900 H   0  0  0  0  0  0  0  0  0  0  0  0
   -0.6710   -0.6569    3.8504 H   0  0  0  0  0  0  0  0  0  0  0  0
   -1.3533   -2.8233    5.0322 H   0  0  0  0  0  0  0  0  0  0  0  0
   -1.6404   -3.5624    3.4497 H   0  0  0  0  0  0  0  0  0  0  0  0
   -0.0082   -3.0790    3.9398 H   0  0  0  0  0  0  0  0  0  0  0  0
   -3.4733   -1.7034    3.2178 H   0  0  0  0  0  0  0  0  0  0  0  0
   -2.9780    0.0124    3.3989 H   0  0  0  0  0  0  0  0  0  0  0  0
   -2.9438   -1.0678    4.7707 H   0  0  0  0  0  0  0  0  0  0  0  0
   -1.4656    0.6665    1.6391 H   0  0  0  0  0  0  0  0  0  0  0  0
   -1.2586    0.7728   -0.8816 H   0  0  0  0  0  0  0  0  0  0  0  0
   -0.8394   -0.9425   -0.9234 H   0  0  0  0  0  0  0  0  0  0  0  0
    0.2376    0.2400   -0.1645 H   0  0  0  0  0  0  0  0  0  0  0  0
   -3.7064   -0.4960    1.4539 H   0  0  0  0  0  0  0  0  0  0  0  0
   -3.0973   -1.5001    0.1370 H   0  0  0  0  0  0  0  0  0  0  0  0
   -3.3635    0.2322   -0.0845 H   0  0  0  0  0  0  0  0  0  0  0  0
  1  2  1  0
  2  3  1  0
  4  3  1  6
  4  5  1  0
  4  6  2  0
  4  7  1  0
  7  8  1  0
  8  9  1  0
  9 10  1  0
 10 11  1  0
 11 12  1  0
 11 13  1  0
 10 14  1  0
 14 15  1  0
 14 16  1  0
  1 17  1  0
  1 18  1  0
  1 19  1  0
  2 20  1  0
  2 21  1  0
  5 22  1  0
  5 23  1  0
  5 24  1  0
  8 25  1  0
  8 26  1  0
  9 27  1  0
  9 28  1  0
 10 29  1  1
 11 30  1  1
 12 31  1  0
 12 32  1  0
 12 33  1  0
 13 34  1  0
 13 35  1  0
 13 36  1  0
 14 37  1  6
 15 38  1  0
 15 39  1  0
 15 40  1  0
 16 41  1  0
 16 42  1  0
 16 43  1  0
M  CHG  1  10   1
M  END
$$$$
