VX
     RDKit          3D

 43 42  0  0  0  0  0  0  0  0999 V2000
    3.5984   -2.0338   -1.2025 C   0  0  0  0  0  0  0  0  0  0  0  0
    3.5483   -0.5253   -1.0733 C   0  0  0  0  0  0  0  0  0  0  0  0
    2.9965   -0.1991    0.1953 O   0  0  0  0  0  0  0  0  0  0  0  0
    2.8391    1.3655    0.5753 P   0  0  1  0  0  0  0  0  0  0  0  0
    4.0398    2.1328    1.6423 C   0  0  0  0  0  0  0  0  0  0  0  0
    1.6896    2.1710    0.0348 O   0  0  0  0  0  0  0  0  0  0  0  0
    1.5422    0.7778    2.4574 S   0  0  0  0  0  0  0  0  0  0  0  0
    0.1149   -0.1505    1.8197 C   0  0  0  0  0  0  0  0  0  0  0  0
   -0.5136    0.5019    0.5832 C   0  0  0  0  0  0  0  0  0  0  0  0
   -1.7665   -0.2167    0.0502 N   0  0  2  0  0  0  0  0  0  0  0  0
   -2.2268    0.3079   -1.3459 C   0  0  1  0  0  0  0  0  0  0  0  0
   -1.0650    0.7703   -2.2294 C   0  0  0  0  0  0  0  0  0  0  0  0
   -2.9620   -0.8250   -2.0739 C   0  0  0  0  0  0  0  0  0  0  0  0
   -2.9763   -0.2862    1.0112 C   0  0  1  0  0  0  0  0  0  0  0  0
   -2.9283   -1.5695    1.8348 C   0  0  0  0  0  0  0  0  0  0  0  0
   -3.1448    0.9800    1.8449 C   0  0  0  0  0  0  0  0  0  0  0  0
    4.0147   -2.3312   -2.1695 H   0  0  0  0  0  0  0  0  0  0  0  0
    2.5966   -2.4635   -1.1030 H   0  0  0  0  0  0  0  0  0  0  0  0
    4.2105   -2.4681   -0.4052 H   0  0  0  0  0  0  0  0  0  0  0  0
    2.9153   -0.1046   -1.8609 H   0  0  0  0  0  0  0  0  0  0  0  0
    4.5547   -0.1041   -1.1614 H   0  0  0  0  0  0  0  0  0  0  0  0
    4.8591    2.5694    1.0650 H   0  0  0  0  0  0  0  0  0  0  0  0
    3.5755    2.9349    2.2250 H   0  0  0  0  0  0  0  0  0  0  0  0
    4.4614    1.4037    2.3400 H   0  0  0  0  0  0  0  0  0  0  0  0
   -0.5843   -0.2017    2.6518 H   0  0  0  0  0  0  0  0  0  0  0  0
    0.4366   -1.1700    1.5845 H   0  0  0  0  0  0  0  0  0  0  0  0
    0.2198    0.4058   -0.2154 H   0  0  0  0  0  0  0  0  0  0  0  0
   -0.7762    1.5533    0.7328 H   0  0  0  0  0  0  0  0  0  0  0  0
   -1.4633   -1.1842   -0.1233 H   0  0  0  0  0  0  0  0  0  0  0  0
   -2.8959    1.1556   -1.1595 H   0  0  0  0  0  0  0  0  0  0  0  0
   -0.3187   -0.0218   -2.3572 H   0  0  0  0  0  0  0  0  0  0  0  0
   -0.5790    1.6640   -1.8255 H   0  0  0  0  0  0  0  0  0  0  0  0
   -1.4285    1.0436   -3.2278 H   0  0  0  0  0  0  0  0  0  0  0  0
   -2.3011   -1.6852   -2.2336 H   0  0  0  0  0  0  0  0  0  0  0  0
   -3.8423   -1.1798   -1.5349 H   0  0  0  0  0  0  0  0  0  0  0  0
   -3.3086   -0.4858   -3.0563 H   0  0  0  0  0  0  0  0  0  0  0  0
   -3.8687   -0.3641    0.3821 H   0  0  0  0  0  0  0  0  0  0  0  0
   -2.7949   -2.4467    1.1920 H   0  0  0  0  0  0  0  0  0  0  0  0
   -3.8735   -1.7013    2.3745 H   0  0  0  0  0  0  0  0  0  0  0  0
   -2.1335   -1.5741    2.5815 H   0  0  0  0  0  0  0  0  0  0  0  0
   -4.0903    0.9414    2.3994 H   0  0  0  0  0  0  0  0  0  0  0  0
   -3.1807    1.8695    1.2075 H   0  0  0  0  0  0  0  0  0  0  0  0
   -2.3519    1.1154    2.5839 H   0  0  0  0  0  0  0  0  0  0  0  0
  1  2  1  0
  2  3  1  0
  4  3  1  6
  4  5  1  0
  4  6  2  0
  4  7  1  0
  7  8  1  0
  8  9  1  0
  9 10  1  0
 10 11  1  0
 11 12  1  0
 11 13  1  0
 10 14  1  0
 14 15  1  0
 14 16  1  0
  1 17  1  0
  1 18  1  0
  1 19  1  0
  2 20  1  0
  2 21  1  0
  5 22  1  0
  5 23  1  0
  5 24  1  0
  8 25  1  0
  8 26  1  0
  9 27  1  0
  9 28  1  0
 10 29  1  6
 11 30  1  6
 12 31  1  0
 12 32  1  0
 12 33  1  0
 13 34  1  0
 13 35  1  0
 13 36  1  0
 14 37  1  1
 15 38  1  0
 15 39  1  0
 15 40  1  0
 16 41  1  0
 16 42  1  0
 16 43  1  0
M  CHG  1  10   1
M  END
$$$$
