VX
     RDKit          3D

 43 42  0  0  0  0  0  0  0  0999 V2000
    4.7541   -1.5101   -0.7567 C   0  0  0  0  0  0  0  0  0  0  0  0
    3.6170   -0.5454   -1.0302 C   0  0  0  0  0  0  0  0  0  0  0  0
    3.0089   -0.1959    0.2048 O   0  0  0  0  0  0  0  0  0  0  0  0
    2.8308    1.3650    0.5695 P   0  0  1  0  0  0  0  0  0  0  0  0
    4.0397    2.1216    1.6388 C   0  0  0  0  0  0  0  0  0  0  0  0
    1.6856    2.1794    0.0347 O   0  0  0  0  0  0  0  0  0  0  0  0
    1.5339    0.7773    2.4516 S   0  0  0  0  0  0  0  0  0  0  0  0
   -0.0656    1.5835    2.1769 C   0  0  0  0  0  0  0  0  0  0  0  0
   -0.8338    0.9318    1.0194 C   0  0  0  0  0  0  0  0  0  0  0  0
   -2.2632    1.5221    0.9144 N   0  0  1  0  0  0  0  0  0  0  0  0
   -2.4325    2.3979   -0.3526 C   0  0  1  0  0  0  0  0  0  0  0  0
   -3.8736    2.8877   -0.5017 C   0  0  0  0  0  0  0  0  0  0  0  0
   -1.5166    3.6218   -0.2504 C   0  0  0  0  0  0  0  0  0  0  0  0
   -3.3681    0.4772    1.1471 C   0  0  2  0  0  0  0  0  0  0  0  0
   -3.2512   -0.1157    2.5529 C   0  0  0  0  0  0  0  0  0  0  0  0
   -3.3795   -0.5949    0.0604 C   0  0  0  0  0  0  0  0  0  0  0  0
    5.5155   -1.0267   -0.1303 H   0  0  0  0  0  0  0  0  0  0  0  0
    5.2238   -1.8384   -1.6890 H   0  0  0  0  0  0  0  0  0  0  0  0
    4.4005   -2.3908   -0.2067 H   0  0  0  0  0  0  0  0  0  0  0  0
    2.8572   -1.0173   -1.6626 H   0  0  0  0  0  0  0  0  0  0  0  0
    3.9939    0.3419   -1.5485 H   0  0  0  0  0  0  0  0  0  0  0  0
    3.5873    2.9389    2.2083 H   0  0  0  0  0  0  0  0  0  0  0  0
    4.4349    1.3904    2.3497 H   0  0  0  0  0  0  0  0  0  0  0  0
    4.8826    2.5307    1.0720 H   0  0  0  0  0  0  0  0  0  0  0  0
   -0.6399    1.4951    3.1047 H   0  0  0  0  0  0  0  0  0  0  0  0
    0.0991    2.6495    1.9952 H   0  0  0  0  0  0  0  0  0  0  0  0
   -0.9225   -0.1446    1.1902 H   0  0  0  0  0  0  0  0  0  0  0  0
   -0.3511    1.0578    0.0478 H   0  0  0  0  0  0  0  0  0  0  0  0
   -2.3742    2.1836    1.6955 H   0  0  0  0  0  0  0  0  0  0  0  0
   -2.1533    1.7800   -1.2116 H   0  0  0  0  0  0  0  0  0  0  0  0
   -4.2308    3.3721    0.4131 H   0  0  0  0  0  0  0  0  0  0  0  0
   -4.5565    2.0719   -0.7569 H   0  0  0  0  0  0  0  0  0  0  0  0
   -3.9482    3.6167   -1.3168 H   0  0  0  0  0  0  0  0  0  0  0  0
   -1.6422    4.2702   -1.1250 H   0  0  0  0  0  0  0  0  0  0  0  0
   -1.7453    4.2164    0.6412 H   0  0  0  0  0  0  0  0  0  0  0  0
   -0.4630    3.3467   -0.2160 H   0  0  0  0  0  0  0  0  0  0  0  0
   -4.3144    1.0254    1.1291 H   0  0  0  0  0  0  0  0  0  0  0  0
   -2.3911   -0.7841    2.6587 H   0  0  0  0  0  0  0  0  0  0  0  0
   -3.1734    0.6727    3.3104 H   0  0  0  0  0  0  0  0  0  0  0  0
   -4.1460   -0.7065    2.7810 H   0  0  0  0  0  0  0  0  0  0  0  0
   -3.4903   -0.1601   -0.9374 H   0  0  0  0  0  0  0  0  0  0  0  0
   -2.4722   -1.2068    0.0650 H   0  0  0  0  0  0  0  0  0  0  0  0
   -4.2288   -1.2736    0.2129 H   0  0  0  0  0  0  0  0  0  0  0  0
  1  2  1  0
  2  3  1  0
  4  3  1  6
  4  5  1  0
  4  6  2  0
  4  7  1  0
  7  8  1  0
  8  9  1  0
  9 10  1  0
 10 11  1  0
 11 12  1  0
 11 13  1  0
 10 14  1  0
 14 15  1  0
 14 16  1  0
  1 17  1  0
  1 18  1  0
  1 19  1  0
  2 20  1  0
  2 21  1  0
  5 22  1  0
  5 23  1  0
  5 24  1  0
  8 25  1  0
  8 26  1  0
  9 27  1  0
  9 28  1  0
 10 29  1  6
 11 30  1  1
 12 31  1  0
 12 32  1  0
 12 33  1  0
 13 34  1  0
 13 35  1  0
 13 36  1  0
 14 37  1  1
 15 38  1  0
 15 39  1  0
 15 40  1  0
 16 41  1  0
 16 42  1  0
 16 43  1  0
M  CHG  1  10   1
M  END
$$$$
