VX
     RDKit          3D

 43 42  0  0  0  0  0  0  0  0999 V2000
    3.2463   -1.9028   -1.4521 C   0  0  0  0  0  0  0  0  0  0  0  0
    3.7053   -0.5368   -0.9883 C   0  0  0  0  0  0  0  0  0  0  0  0
    2.9884   -0.1985    0.1899 O   0  0  0  0  0  0  0  0  0  0  0  0
    2.8439    1.3648    0.5785 P   0  0  1  0  0  0  0  0  0  0  0  0
    4.0403    2.1392    1.6447 C   0  0  0  0  0  0  0  0  0  0  0  0
    1.6923    2.1645    0.0347 O   0  0  0  0  0  0  0  0  0  0  0  0
    1.5470    0.7771    2.4606 S   0  0  0  0  0  0  0  0  0  0  0  0
   -0.1596    0.8448    1.8372 C   0  0  0  0  0  0  0  0  0  0  0  0
   -0.3725   -0.1403    0.6800 C   0  0  0  0  0  0  0  0  0  0  0  0
   -1.7642   -0.0777    0.0233 N   0  0  1  0  0  0  0  0  0  0  0  0
   -2.9412   -0.1381    1.0210 C   0  0  1  0  0  0  0  0  0  0  0  0
   -4.2879   -0.1408    0.2930 C   0  0  0  0  0  0  0  0  0  0  0  0
   -2.8396   -1.4184    1.8585 C   0  0  0  0  0  0  0  0  0  0  0  0
   -1.9029    0.9507   -1.1188 C   0  0  1  0  0  0  0  0  0  0  0  0
   -1.8430    2.3898   -0.6332 C   0  0  0  0  0  0  0  0  0  0  0  0
   -0.8947    0.6719   -2.2345 C   0  0  0  0  0  0  0  0  0  0  0  0
    3.7951   -2.2175   -2.3439 H   0  0  0  0  0  0  0  0  0  0  0  0
    3.3897   -2.6507   -0.6637 H   0  0  0  0  0  0  0  0  0  0  0  0
    2.1756   -1.8879   -1.6850 H   0  0  0  0  0  0  0  0  0  0  0  0
    4.7730   -0.5522   -0.7582 H   0  0  0  0  0  0  0  0  0  0  0  0
    3.5202    0.2024   -1.7729 H   0  0  0  0  0  0  0  0  0  0  0  0
    4.8674    2.5594    1.0663 H   0  0  0  0  0  0  0  0  0  0  0  0
    3.5780    2.9517    2.2095 H   0  0  0  0  0  0  0  0  0  0  0  0
    4.4512    1.4182    2.3555 H   0  0  0  0  0  0  0  0  0  0  0  0
   -0.8123    0.6054    2.6812 H   0  0  0  0  0  0  0  0  0  0  0  0
   -0.3676    1.8749    1.5497 H   0  0  0  0  0  0  0  0  0  0  0  0
    0.3593   -0.0165   -0.1173 H   0  0  0  0  0  0  0  0  0  0  0  0
   -0.2595   -1.1718    1.0347 H   0  0  0  0  0  0  0  0  0  0  0  0
   -1.8258   -0.9741   -0.4780 H   0  0  0  0  0  0  0  0  0  0  0  0
   -2.8732    0.7469    1.6618 H   0  0  0  0  0  0  0  0  0  0  0  0
   -5.1056   -0.3360    0.9962 H   0  0  0  0  0  0  0  0  0  0  0  0
   -4.3258   -0.9113   -0.4850 H   0  0  0  0  0  0  0  0  0  0  0  0
   -4.5028    0.8312   -0.1627 H   0  0  0  0  0  0  0  0  0  0  0  0
   -2.8114   -2.3100    1.2224 H   0  0  0  0  0  0  0  0  0  0  0  0
   -1.9526   -1.4283    2.4988 H   0  0  0  0  0  0  0  0  0  0  0  0
   -3.7048   -1.5110    2.5249 H   0  0  0  0  0  0  0  0  0  0  0  0
   -2.8857    0.7667   -1.5614 H   0  0  0  0  0  0  0  0  0  0  0  0
   -2.5003    2.5653    0.2227 H   0  0  0  0  0  0  0  0  0  0  0  0
   -2.1650    3.0653   -1.4340 H   0  0  0  0  0  0  0  0  0  0  0  0
   -0.8273    2.6899   -0.3667 H   0  0  0  0  0  0  0  0  0  0  0  0
    0.1211    0.9761   -1.9693 H   0  0  0  0  0  0  0  0  0  0  0  0
   -1.1678    1.2383   -3.1322 H   0  0  0  0  0  0  0  0  0  0  0  0
   -0.8821   -0.3890   -2.5055 H   0  0  0  0  0  0  0  0  0  0  0  0
  1  2  1  0
  2  3  1  0
  4  3  1  6
  4  5  1  0
  4  6  2  0
  4  7  1  0
  7  8  1  0
  8  9  1  0
  9 10  1  0
 10 11  1  0
 11 12  1  0
 11 13  1  0
 10 14  1  0
 14 15  1  0
 14 16  1  0
  1 17  1  0
  1 18  1  0
  1 19  1  0
  2 20  1  0
  2 21  1  0
  5 22  1  0
  5 23  1  0
  5 24  1  0
  8 25  1  0
  8 26  1  0
  9 27  1  0
  9 28  1  0
 10 29  1  1
 11 30  1  6
 12 31  1  0
 12 32  1  0
 12 33  1  0
 13 34  1  0
 13 35  1  0
 13 36  1  0
 14 37  1  1
 15 38  1  0
 15 39  1  0
 15 40  1  0
 16 41  1  0
 16 42  1  0
 16 43  1  0
M  CHG  1  10   1
M  END
$$$$
