VX
     RDKit          3D

 43 42  0  0  0  0  0  0  0  0999 V2000
    4.6493   -0.6344   -1.5300 C   0  0  0  0  0  0  0  0  0  0  0  0
    3.1856   -0.6069   -1.1411 C   0  0  0  0  0  0  0  0  0  0  0  0
    3.0221   -0.2035    0.2116 O   0  0  0  0  0  0  0  0  0  0  0  0
    2.8208    1.3680    0.5636 P   0  0  1  0  0  0  0  0  0  0  0  0
    4.0407    2.1144    1.6372 C   0  0  0  0  0  0  0  0  0  0  0  0
    1.6813    2.1912    0.0354 O   0  0  0  0  0  0  0  0  0  0  0  0
    1.5239    0.7803    2.4457 S   0  0  0  0  0  0  0  0  0  0  0  0
    1.0733   -0.9441    2.1399 C   0  0  0  0  0  0  0  0  0  0  0  0
    0.0603   -1.4321    3.1844 C   0  0  0  0  0  0  0  0  0  0  0  0
    0.0533   -2.9668    3.2829 N   0  0  1  0  0  0  0  0  0  0  0  0
   -0.4008   -3.5137    4.6505 C   0  0  1  0  0  0  0  0  0  0  0  0
    0.7903   -3.4691    5.6142 C   0  0  0  0  0  0  0  0  0  0  0  0
   -1.6000   -2.7612    5.2261 C   0  0  0  0  0  0  0  0  0  0  0  0
   -0.5435   -3.6634    2.0454 C   0  0  1  0  0  0  0  0  0  0  0  0
    0.0685   -5.0578    1.9040 C   0  0  0  0  0  0  0  0  0  0  0  0
   -2.0649   -3.6995    2.0710 C   0  0  0  0  0  0  0  0  0  0  0  0
    5.2375   -1.2125   -0.8114 H   0  0  0  0  0  0  0  0  0  0  0  0
    5.0647    0.3775   -1.5480 H   0  0  0  0  0  0  0  0  0  0  0  0
    4.7785   -1.0733   -2.5235 H   0  0  0  0  0  0  0  0  0  0  0  0
    2.6080    0.0322   -1.8183 H   0  0  0  0  0  0  0  0  0  0  0  0
    2.7668   -1.6148   -1.2147 H   0  0  0  0  0  0  0  0  0  0  0  0
    4.8729    2.5311    1.0672 H   0  0  0  0  0  0  0  0  0  0  0  0
    3.5941    2.9276    2.2196 H   0  0  0  0  0  0  0  0  0  0  0  0
    4.4407    1.3734    2.3353 H   0  0  0  0  0  0  0  0  0  0  0  0
    0.6574   -1.0284    1.1269 H   0  0  0  0  0  0  0  0  0  0  0  0
    1.9939   -1.5381    2.1805 H   0  0  0  0  0  0  0  0  0  0  0  0
    0.3345   -1.0550    4.1769 H   0  0  0  0  0  0  0  0  0  0  0  0
   -0.9601   -1.1123    2.9430 H   0  0  0  0  0  0  0  0  0  0  0  0
    1.0503   -3.2198    3.2454 H   0  0  0  0  0  0  0  0  0  0  0  0
   -0.6727   -4.5642    4.4958 H   0  0  0  0  0  0  0  0  0  0  0  0
    0.5181   -3.9112    6.5802 H   0  0  0  0  0  0  0  0  0  0  0  0
    1.1296   -2.4450    5.8031 H   0  0  0  0  0  0  0  0  0  0  0  0
    1.6384   -4.0429    5.2198 H   0  0  0  0  0  0  0  0  0  0  0  0
   -1.3564   -1.7267    5.4895 H   0  0  0  0  0  0  0  0  0  0  0  0
   -1.9364   -3.2514    6.1450 H   0  0  0  0  0  0  0  0  0  0  0  0
   -2.4519   -2.7411    4.5460 H   0  0  0  0  0  0  0  0  0  0  0  0
   -0.2228   -3.0764    1.1781 H   0  0  0  0  0  0  0  0  0  0  0  0
   -0.2085   -5.7269    2.7260 H   0  0  0  0  0  0  0  0  0  0  0  0
    1.1615   -5.0038    1.8689 H   0  0  0  0  0  0  0  0  0  0  0  0
   -0.2628   -5.5336    0.9734 H   0  0  0  0  0  0  0  0  0  0  0  0
   -2.4895   -2.6987    2.2079 H   0  0  0  0  0  0  0  0  0  0  0  0
   -2.4477   -4.0924    1.1215 H   0  0  0  0  0  0  0  0  0  0  0  0
   -2.4438   -4.3536    2.8646 H   0  0  0  0  0  0  0  0  0  0  0  0
  1  2  1  0
  2  3  1  0
  4  3  1  6
  4  5  1  0
  4  6  2  0
  4  7  1  0
  7  8  1  0
  8  9  1  0
  9 10  1  0
 10 11  1  0
 11 12  1  0
 11 13  1  0
 10 14  1  0
 14 15  1  0
 14 16  1  0
  1 17  1  0
  1 18  1  0
  1 19  1  0
  2 20  1  0
  2 21  1  0
  5 22  1  0
  5 23  1  0
  5 24  1  0
  8 25  1  0
  8 26  1  0
  9 27  1  0
  9 28  1  0
 10 29  1  1
 11 30  1  1
 12 31  1  0
 12 32  1  0
 12 33  1  0
 13 34  1  0
 13 35  1  0
 13 36  1  0
 14 37  1  1
 15 38  1  0
 15 39  1  0
 15 40  1  0
 16 41  1  0
 16 42  1  0
 16 43  1  0
M  CHG  1  10   1
M  END
$$$$
