VX
     RDKit          3D

 43 42  0  0  0  0  0  0  0  0999 V2000
    3.9182   -1.9765   -1.1015 C   0  0  0  0  0  0  0  0  0  0  0  0
    3.4564   -0.5305   -1.1027 C   0  0  0  0  0  0  0  0  0  0  0  0
    3.0061   -0.1963    0.2027 O   0  0  0  0  0  0  0  0  0  0  0  0
    2.8323    1.3653    0.5706 P   0  0  1  0  0  0  0  0  0  0  0  0
    4.0392    2.1240    1.6392 C   0  0  0  0  0  0  0  0  0  0  0  0
    1.6874    2.1771    0.0352 O   0  0  0  0  0  0  0  0  0  0  0  0
    1.5354    0.7776    2.4527 S   0  0  0  0  0  0  0  0  0  0  0  0
    0.3224    2.1323    2.5919 C   0  0  0  0  0  0  0  0  0  0  0  0
   -0.8326    1.9894    1.5834 C   0  0  0  0  0  0  0  0  0  0  0  0
   -1.3826    0.5568    1.5461 N   0  0  1  0  0  0  0  0  0  0  0  0
   -2.2123    0.1778    2.7772 C   0  0  2  0  0  0  0  0  0  0  0  0
   -2.1546   -1.3341    2.9952 C   0  0  0  0  0  0  0  0  0  0  0  0
   -3.6445    0.6881    2.6943 C   0  0  0  0  0  0  0  0  0  0  0  0
   -1.9410    0.1127    0.1863 C   0  0  1  0  0  0  0  0  0  0  0  0
   -2.7573    1.2028   -0.5061 C   0  0  0  0  0  0  0  0  0  0  0  0
   -0.7841   -0.3623   -0.6940 C   0  0  0  0  0  0  0  0  0  0  0  0
    4.2410   -2.2843   -2.1007 H   0  0  0  0  0  0  0  0  0  0  0  0
    3.1099   -2.6424   -0.7729 H   0  0  0  0  0  0  0  0  0  0  0  0
    4.7505   -2.1137   -0.4023 H   0  0  0  0  0  0  0  0  0  0  0  0
    2.6251   -0.3997   -1.8058 H   0  0  0  0  0  0  0  0  0  0  0  0
    4.2804    0.1298   -1.4005 H   0  0  0  0  0  0  0  0  0  0  0  0
    4.4493    1.3931    2.3421 H   0  0  0  0  0  0  0  0  0  0  0  0
    4.8679    2.5460    1.0639 H   0  0  0  0  0  0  0  0  0  0  0  0
    3.5818    2.9340    2.2152 H   0  0  0  0  0  0  0  0  0  0  0  0
    0.8298    3.0917    2.4510 H   0  0  0  0  0  0  0  0  0  0  0  0
   -0.0663    2.1241    3.6147 H   0  0  0  0  0  0  0  0  0  0  0  0
   -1.6604    2.6626    1.8280 H   0  0  0  0  0  0  0  0  0  0  0  0
   -0.4788    2.2313    0.5809 H   0  0  0  0  0  0  0  0  0  0  0  0
   -0.5214   -0.0005    1.6633 H   0  0  0  0  0  0  0  0  0  0  0  0
   -1.7226    0.6498    3.6354 H   0  0  0  0  0  0  0  0  0  0  0  0
   -1.1208   -1.6943    3.0128 H   0  0  0  0  0  0  0  0  0  0  0  0
   -2.6115   -1.5928    3.9571 H   0  0  0  0  0  0  0  0  0  0  0  0
   -2.6960   -1.8878    2.2224 H   0  0  0  0  0  0  0  0  0  0  0  0
   -4.2062    0.2090    1.8872 H   0  0  0  0  0  0  0  0  0  0  0  0
   -4.1787    0.4681    3.6253 H   0  0  0  0  0  0  0  0  0  0  0  0
   -3.6817    1.7724    2.5498 H   0  0  0  0  0  0  0  0  0  0  0  0
   -2.5894   -0.7483    0.3735 H   0  0  0  0  0  0  0  0  0  0  0  0
   -3.5302    1.6232    0.1420 H   0  0  0  0  0  0  0  0  0  0  0  0
   -3.2595    0.7841   -1.3855 H   0  0  0  0  0  0  0  0  0  0  0  0
   -2.1322    2.0266   -0.8662 H   0  0  0  0  0  0  0  0  0  0  0  0
   -1.1635   -0.7739   -1.6362 H   0  0  0  0  0  0  0  0  0  0  0  0
   -0.0982    0.4529   -0.9430 H   0  0  0  0  0  0  0  0  0  0  0  0
   -0.2092   -1.1517   -0.1988 H   0  0  0  0  0  0  0  0  0  0  0  0
  1  2  1  0
  2  3  1  0
  4  3  1  6
  4  5  1  0
  4  6  2  0
  4  7  1  0
  7  8  1  0
  8  9  1  0
  9 10  1  0
 10 11  1  0
 11 12  1  0
 11 13  1  0
 10 14  1  0
 14 15  1  0
 14 16  1  0
  1 17  1  0
  1 18  1  0
  1 19  1  0
  2 20  1  0
  2 21  1  0
  5 22  1  0
  5 23  1  0
  5 24  1  0
  8 25  1  0
  8 26  1  0
  9 27  1  0
  9 28  1  0
 10 29  1  6
 11 30  1  1
 12 31  1  0
 12 32  1  0
 12 33  1  0
 13 34  1  0
 13 35  1  0
 13 36  1  0
 14 37  1  6
 15 38  1  0
 15 39  1  0
 15 40  1  0
 16 41  1  0
 16 42  1  0
 16 43  1  0
M  CHG  1  10   1
M  END
$$$$
