VX
     RDKit          3D

 43 42  0  0  0  0  0  0  0  0999 V2000
    3.3300   -2.4865    0.7667 C   0  0  0  0  0  0  0  0  0  0  0  0
    3.7635   -1.0582    1.0241 C   0  0  0  0  0  0  0  0  0  0  0  0
    2.9985   -0.1980    0.1971 O   0  0  0  0  0  0  0  0  0  0  0  0
    2.8366    1.3649    0.5735 P   0  0  1  0  0  0  0  0  0  0  0  0
    4.0410    2.1311    1.6427 C   0  0  0  0  0  0  0  0  0  0  0  0
    1.6888    2.1720    0.0345 O   0  0  0  0  0  0  0  0  0  0  0  0
    1.5397    0.7773    2.4556 S   0  0  0  0  0  0  0  0  0  0  0  0
   -0.0930    0.5357    1.6926 C   0  0  0  0  0  0  0  0  0  0  0  0
   -1.1412    0.2230    2.7562 C   0  0  0  0  0  0  0  0  0  0  0  0
   -2.5530   -0.0333    2.2158 N   0  0  2  0  0  0  0  0  0  0  0  0
   -2.9240   -1.4842    1.8785 C   0  0  1  0  0  0  0  0  0  0  0  0
   -1.8569   -2.2055    1.0658 C   0  0  0  0  0  0  0  0  0  0  0  0
   -3.2247   -2.2363    3.1774 C   0  0  0  0  0  0  0  0  0  0  0  0
   -3.1004    1.0619    1.2863 C   0  0  2  0  0  0  0  0  0  0  0  0
   -4.5870    1.2725    1.5840 C   0  0  0  0  0  0  0  0  0  0  0  0
   -2.8728    0.7607   -0.1901 C   0  0  0  0  0  0  0  0  0  0  0  0
    2.2655   -2.6115    0.9910 H   0  0  0  0  0  0  0  0  0  0  0  0
    3.4662   -2.7477   -0.2879 H   0  0  0  0  0  0  0  0  0  0  0  0
    3.9047   -3.1856    1.3807 H   0  0  0  0  0  0  0  0  0  0  0  0
    4.8223   -0.9366    0.7769 H   0  0  0  0  0  0  0  0  0  0  0  0
    3.6161   -0.8074    2.0785 H   0  0  0  0  0  0  0  0  0  0  0  0
    4.8948    2.4895    1.0608 H   0  0  0  0  0  0  0  0  0  0  0  0
    3.5975    2.9867    2.1602 H   0  0  0  0  0  0  0  0  0  0  0  0
    4.4073    1.4327    2.3997 H   0  0  0  0  0  0  0  0  0  0  0  0
    0.0003   -0.2627    0.9555 H   0  0  0  0  0  0  0  0  0  0  0  0
   -0.3477    1.4602    1.1693 H   0  0  0  0  0  0  0  0  0  0  0  0
   -0.8662   -0.6486    3.3584 H   0  0  0  0  0  0  0  0  0  0  0  0
   -1.2480    1.0748    3.4398 H   0  0  0  0  0  0  0  0  0  0  0  0
   -3.1034    0.1333    3.0685 H   0  0  0  0  0  0  0  0  0  0  0  0
   -3.8526   -1.4453    1.3006 H   0  0  0  0  0  0  0  0  0  0  0  0
   -1.6260   -1.6859    0.1334 H   0  0  0  0  0  0  0  0  0  0  0  0
   -2.2106   -3.2063    0.7919 H   0  0  0  0  0  0  0  0  0  0  0  0
   -0.9295   -2.3414    1.6310 H   0  0  0  0  0  0  0  0  0  0  0  0
   -3.5682   -3.2531    2.9575 H   0  0  0  0  0  0  0  0  0  0  0  0
   -4.0173   -1.7391    3.7471 H   0  0  0  0  0  0  0  0  0  0  0  0
   -2.3424   -2.3172    3.8199 H   0  0  0  0  0  0  0  0  0  0  0  0
   -2.5757    1.9842    1.5609 H   0  0  0  0  0  0  0  0  0  0  0  0
   -5.1842    0.3860    1.3499 H   0  0  0  0  0  0  0  0  0  0  0  0
   -4.7468    1.5213    2.6387 H   0  0  0  0  0  0  0  0  0  0  0  0
   -4.9800    2.1034    0.9881 H   0  0  0  0  0  0  0  0  0  0  0  0
   -3.4446   -0.1091   -0.5280 H   0  0  0  0  0  0  0  0  0  0  0  0
   -1.8197    0.5905   -0.4232 H   0  0  0  0  0  0  0  0  0  0  0  0
   -3.2004    1.6118   -0.7979 H   0  0  0  0  0  0  0  0  0  0  0  0
  1  2  1  0
  2  3  1  0
  4  3  1  6
  4  5  1  0
  4  6  2  0
  4  7  1  0
  7  8  1  0
  8  9  1  0
  9 10  1  0
 10 11  1  0
 11 12  1  0
 11 13  1  0
 10 14  1  0
 14 15  1  0
 14 16  1  0
  1 17  1  0
  1 18  1  0
  1 19  1  0
  2 20  1  0
  2 21  1  0
  5 22  1  0
  5 23  1  0
  5 24  1  0
  8 25  1  0
  8 26  1  0
  9 27  1  0
  9 28  1  0
 10 29  1  1
 11 30  1  1
 12 31  1  0
 12 32  1  0
 12 33  1  0
 13 34  1  0
 13 35  1  0
 13 36  1  0
 14 37  1  1
 15 38  1  0
 15 39  1  0
 15 40  1  0
 16 41  1  0
 16 42  1  0
 16 43  1  0
M  CHG  1  10   1
M  END
$$$$
