VX
     RDKit          3D

 43 42  0  0  0  0  0  0  0  0999 V2000
    3.6361   -2.0318   -1.1822 C   0  0  0  0  0  0  0  0  0  0  0  0
    3.5079   -0.5259   -1.0838 C   0  0  0  0  0  0  0  0  0  0  0  0
    3.0096   -0.1972    0.2049 O   0  0  0  0  0  0  0  0  0  0  0  0
    2.8297    1.3659    0.5691 P   0  0  1  0  0  0  0  0  0  0  0  0
    4.0390    2.1215    1.6383 C   0  0  0  0  0  0  0  0  0  0  0  0
    1.6865    2.1799    0.0355 O   0  0  0  0  0  0  0  0  0  0  0  0
    1.5328    0.7782    2.4511 S   0  0  0  0  0  0  0  0  0  0  0  0
    0.1689   -0.1521    1.6767 C   0  0  0  0  0  0  0  0  0  0  0  0
   -1.0078   -0.3002    2.6420 C   0  0  0  0  0  0  0  0  0  0  0  0
   -1.4652    1.0504    3.2067 N   0  0  1  0  0  0  0  0  0  0  0  0
   -2.2982    1.9649    2.2830 C   0  0  2  0  0  0  0  0  0  0  0  0
   -3.1289    1.1992    1.2595 C   0  0  0  0  0  0  0  0  0  0  0  0
   -1.3900    2.9957    1.6179 C   0  0  0  0  0  0  0  0  0  0  0  0
   -2.0411    0.9881    4.6295 C   0  0  2  0  0  0  0  0  0  0  0  0
   -0.9464    0.6302    5.6348 C   0  0  0  0  0  0  0  0  0  0  0  0
   -3.2316    0.0410    4.7084 C   0  0  0  0  0  0  0  0  0  0  0  0
    4.3152   -2.4119   -0.4117 H   0  0  0  0  0  0  0  0  0  0  0  0
    2.6664   -2.5131   -1.0174 H   0  0  0  0  0  0  0  0  0  0  0  0
    4.0152   -2.3281   -2.1642 H   0  0  0  0  0  0  0  0  0  0  0  0
    4.4835   -0.0550   -1.2337 H   0  0  0  0  0  0  0  0  0  0  0  0
    2.8133   -0.1574   -1.8451 H   0  0  0  0  0  0  0  0  0  0  0  0
    4.8628    2.5475    1.0595 H   0  0  0  0  0  0  0  0  0  0  0  0
    4.4528    1.3871    2.3351 H   0  0  0  0  0  0  0  0  0  0  0  0
    3.5831    2.9276    2.2201 H   0  0  0  0  0  0  0  0  0  0  0  0
   -0.1426    0.3576    0.7622 H   0  0  0  0  0  0  0  0  0  0  0  0
    0.5411   -1.1402    1.3888 H   0  0  0  0  0  0  0  0  0  0  0  0
   -0.6927   -0.9240    3.4830 H   0  0  0  0  0  0  0  0  0  0  0  0
   -1.8632   -0.7987    2.1792 H   0  0  0  0  0  0  0  0  0  0  0  0
   -0.5713    1.5525    3.3355 H   0  0  0  0  0  0  0  0  0  0  0  0
   -2.9886    2.5164    2.9313 H   0  0  0  0  0  0  0  0  0  0  0  0
   -2.5066    0.7023    0.5090 H   0  0  0  0  0  0  0  0  0  0  0  0
   -3.7701    0.4505    1.7331 H   0  0  0  0  0  0  0  0  0  0  0  0
   -3.7857    1.8907    0.7196 H   0  0  0  0  0  0  0  0  0  0  0  0
   -0.7880    3.5329    2.3584 H   0  0  0  0  0  0  0  0  0  0  0  0
   -0.7174    2.5411    0.8880 H   0  0  0  0  0  0  0  0  0  0  0  0
   -1.9915    3.7393    1.0834 H   0  0  0  0  0  0  0  0  0  0  0  0
   -2.3680    2.0070    4.8692 H   0  0  0  0  0  0  0  0  0  0  0  0
   -1.3235    0.7524    6.6564 H   0  0  0  0  0  0  0  0  0  0  0  0
   -0.0777    1.2876    5.5258 H   0  0  0  0  0  0  0  0  0  0  0  0
   -0.6090   -0.4057    5.5410 H   0  0  0  0  0  0  0  0  0  0  0  0
   -2.9560   -0.9905    4.4682 H   0  0  0  0  0  0  0  0  0  0  0  0
   -4.0339    0.3493    4.0326 H   0  0  0  0  0  0  0  0  0  0  0  0
   -3.6465    0.0401    5.7224 H   0  0  0  0  0  0  0  0  0  0  0  0
  1  2  1  0
  2  3  1  0
  4  3  1  6
  4  5  1  0
  4  6  2  0
  4  7  1  0
  7  8  1  0
  8  9  1  0
  9 10  1  0
 10 11  1  0
 11 12  1  0
 11 13  1  0
 10 14  1  0
 14 15  1  0
 14 16  1  0
  1 17  1  0
  1 18  1  0
  1 19  1  0
  2 20  1  0
  2 21  1  0
  5 22  1  0
  5 23  1  0
  5 24  1  0
  8 25  1  0
  8 26  1  0
  9 27  1  0
  9 28  1  0
 10 29  1  6
 11 30  1  1
 12 31  1  0
 12 32  1  0
 12 33  1  0
 13 34  1  0
 13 35  1  0
 13 36  1  0
 14 37  1  1
 15 38  1  0
 15 39  1  0
 15 40  1  0
 16 41  1  0
 16 42  1  0
 16 43  1  0
M  CHG  1  10   1
M  END
$$$$
