VX
     RDKit          3D

 43 42  0  0  0  0  0  0  0  0999 V2000
    4.5451   -0.3708   -1.6771 C   0  0  0  0  0  0  0  0  0  0  0  0
    3.1445   -0.5998   -1.1466 C   0  0  0  0  0  0  0  0  0  0  0  0
    3.0174   -0.1997    0.2095 O   0  0  0  0  0  0  0  0  0  0  0  0
    2.8243    1.3657    0.5652 P   0  0  1  0  0  0  0  0  0  0  0  0
    4.0423    2.1170    1.6392 C   0  0  0  0  0  0  0  0  0  0  0  0
    1.6810    2.1871    0.0339 O   0  0  0  0  0  0  0  0  0  0  0  0
    1.5274    0.7780    2.4473 S   0  0  0  0  0  0  0  0  0  0  0  0
    0.4871   -0.5779    1.8524 C   0  0  0  0  0  0  0  0  0  0  0  0
    1.2141   -1.9045    2.1005 C   0  0  0  0  0  0  0  0  0  0  0  0
    0.3730   -3.1140    1.6100 N   0  0  1  0  0  0  0  0  0  0  0  0
    1.1563   -3.8500    0.5048 C   0  0  1  0  0  0  0  0  0  0  0  0
    2.2598   -4.7304    1.0819 C   0  0  0  0  0  0  0  0  0  0  0  0
    0.2318   -4.5718   -0.4762 C   0  0  0  0  0  0  0  0  0  0  0  0
   -0.1595   -3.9302    2.8097 C   0  0  1  0  0  0  0  0  0  0  0  0
   -1.0909   -3.0508    3.6546 C   0  0  0  0  0  0  0  0  0  0  0  0
   -0.9492   -5.1676    2.3832 C   0  0  0  0  0  0  0  0  0  0  0  0
    5.3113   -0.8122   -1.0068 H   0  0  0  0  0  0  0  0  0  0  0  0
    4.6457   -0.8245   -2.6684 H   0  0  0  0  0  0  0  0  0  0  0  0
    4.7574    0.7107   -1.7717 H   0  0  0  0  0  0  0  0  0  0  0  0
    2.9227   -1.6753   -1.1794 H   0  0  0  0  0  0  0  0  0  0  0  0
    2.3941   -0.1001   -1.7722 H   0  0  0  0  0  0  0  0  0  0  0  0
    4.9084    2.5101    1.0903 H   0  0  0  0  0  0  0  0  0  0  0  0
    3.5962    2.9495    2.1863 H   0  0  0  0  0  0  0  0  0  0  0  0
    4.4010    1.3920    2.3656 H   0  0  0  0  0  0  0  0  0  0  0  0
   -0.4642   -0.5391    2.3957 H   0  0  0  0  0  0  0  0  0  0  0  0
    0.2709   -0.4395    0.7895 H   0  0  0  0  0  0  0  0  0  0  0  0
    1.4430   -2.0686    3.1604 H   0  0  0  0  0  0  0  0  0  0  0  0
    2.1753   -1.9212    1.5812 H   0  0  0  0  0  0  0  0  0  0  0  0
   -0.4607   -2.7341    1.1405 H   0  0  0  0  0  0  0  0  0  0  0  0
    1.6276   -3.0485   -0.0867 H   0  0  0  0  0  0  0  0  0  0  0  0
    2.9541   -4.1461    1.6994 H   0  0  0  0  0  0  0  0  0  0  0  0
    1.8690   -5.5489    1.6983 H   0  0  0  0  0  0  0  0  0  0  0  0
    2.8490   -5.1848    0.2722 H   0  0  0  0  0  0  0  0  0  0  0  0
   -0.1544   -5.5229   -0.0942 H   0  0  0  0  0  0  0  0  0  0  0  0
   -0.6112   -3.9344   -0.7720 H   0  0  0  0  0  0  0  0  0  0  0  0
    0.7859   -4.8192   -1.3907 H   0  0  0  0  0  0  0  0  0  0  0  0
    0.7116   -4.2307    3.4018 H   0  0  0  0  0  0  0  0  0  0  0  0
   -1.4760   -3.6160    4.5130 H   0  0  0  0  0  0  0  0  0  0  0  0
   -1.9497   -2.7113    3.0647 H   0  0  0  0  0  0  0  0  0  0  0  0
   -0.5866   -2.1694    4.0663 H   0  0  0  0  0  0  0  0  0  0  0  0
   -1.4362   -5.6215    3.2577 H   0  0  0  0  0  0  0  0  0  0  0  0
   -0.3042   -5.9511    1.9700 H   0  0  0  0  0  0  0  0  0  0  0  0
   -1.7344   -4.9242    1.6547 H   0  0  0  0  0  0  0  0  0  0  0  0
  1  2  1  0
  2  3  1  0
  4  3  1  6
  4  5  1  0
  4  6  2  0
  4  7  1  0
  7  8  1  0
  8  9  1  0
  9 10  1  0
 10 11  1  0
 11 12  1  0
 11 13  1  0
 10 14  1  0
 14 15  1  0
 14 16  1  0
  1 17  1  0
  1 18  1  0
  1 19  1  0
  2 20  1  0
  2 21  1  0
  5 22  1  0
  5 23  1  0
  5 24  1  0
  8 25  1  0
  8 26  1  0
  9 27  1  0
  9 28  1  0
 10 29  1  1
 11 30  1  1
 12 31  1  0
 12 32  1  0
 12 33  1  0
 13 34  1  0
 13 35  1  0
 13 36  1  0
 14 37  1  6
 15 38  1  0
 15 39  1  0
 15 40  1  0
 16 41  1  0
 16 42  1  0
 16 43  1  0
M  CHG  1  10   1
M  END
$$$$
