VX
     RDKit          3D

 43 42  0  0  0  0  0  0  0  0999 V2000
    3.6333   -1.4922    2.1298 C   0  0  0  0  0  0  0  0  0  0  0  0
    3.9607   -1.0631    0.7149 C   0  0  0  0  0  0  0  0  0  0  0  0
    2.9741   -0.1965    0.1807 O   0  0  0  0  0  0  0  0  0  0  0  0
    2.8529    1.3632    0.5841 P   0  0  1  0  0  0  0  0  0  0  0  0
    4.0416    2.1502    1.6490 C   0  0  0  0  0  0  0  0  0  0  0  0
    1.6963    2.1532    0.0339 O   0  0  0  0  0  0  0  0  0  0  0  0
    1.5560    0.7755    2.4662 S   0  0  0  0  0  0  0  0  0  0  0  0
   -0.1476    0.8335    1.8316 C   0  0  0  0  0  0  0  0  0  0  0  0
   -0.3348   -0.0766    0.6075 C   0  0  0  0  0  0  0  0  0  0  0  0
   -1.8144   -0.3129    0.2439 N   0  0  1  0  0  0  0  0  0  0  0  0
   -2.5699   -1.3413    1.1264 C   0  0  1  0  0  0  0  0  0  0  0  0
   -3.3142   -2.3222    0.2099 C   0  0  0  0  0  0  0  0  0  0  0  0
   -1.6729   -2.1723    2.0491 C   0  0  0  0  0  0  0  0  0  0  0  0
   -2.5853    1.0175    0.0084 C   0  0  1  0  0  0  0  0  0  0  0  0
   -1.8639    1.8714   -1.0398 C   0  0  0  0  0  0  0  0  0  0  0  0
   -4.0110    0.7691   -0.4839 C   0  0  0  0  0  0  0  0  0  0  0  0
    2.6023   -1.8528    2.2007 H   0  0  0  0  0  0  0  0  0  0  0  0
    3.7382   -0.6556    2.8258 H   0  0  0  0  0  0  0  0  0  0  0  0
    4.3104   -2.2867    2.4573 H   0  0  0  0  0  0  0  0  0  0  0  0
    4.9518   -0.6059    0.6561 H   0  0  0  0  0  0  0  0  0  0  0  0
    3.9837   -1.9489    0.0717 H   0  0  0  0  0  0  0  0  0  0  0  0
    4.4053    1.4681    2.4222 H   0  0  0  0  0  0  0  0  0  0  0  0
    4.8970    2.5125    1.0720 H   0  0  0  0  0  0  0  0  0  0  0  0
    3.5859    3.0083    2.1520 H   0  0  0  0  0  0  0  0  0  0  0  0
   -0.3695    1.8745    1.5802 H   0  0  0  0  0  0  0  0  0  0  0  0
   -0.8176    0.5578    2.6494 H   0  0  0  0  0  0  0  0  0  0  0  0
    0.1267    0.3425   -0.2899 H   0  0  0  0  0  0  0  0  0  0  0  0
    0.1257   -1.0597    0.7366 H   0  0  0  0  0  0  0  0  0  0  0  0
   -1.7558   -0.7476   -0.6873 H   0  0  0  0  0  0  0  0  0  0  0  0
   -3.2692   -0.7714    1.7469 H   0  0  0  0  0  0  0  0  0  0  0  0
   -4.0203   -1.8330   -0.4616 H   0  0  0  0  0  0  0  0  0  0  0  0
   -3.8887   -3.0402    0.8059 H   0  0  0  0  0  0  0  0  0  0  0  0
   -2.6122   -2.8921   -0.4096 H   0  0  0  0  0  0  0  0  0  0  0  0
   -2.2854   -2.8713    2.6314 H   0  0  0  0  0  0  0  0  0  0  0  0
   -1.1353   -1.5637    2.7780 H   0  0  0  0  0  0  0  0  0  0  0  0
   -0.9521   -2.7763    1.4878 H   0  0  0  0  0  0  0  0  0  0  0  0
   -2.6221    1.5353    0.9727 H   0  0  0  0  0  0  0  0  0  0  0  0
   -0.9095    2.2566   -0.6738 H   0  0  0  0  0  0  0  0  0  0  0  0
   -1.6782    1.3046   -1.9586 H   0  0  0  0  0  0  0  0  0  0  0  0
   -2.4654    2.7487   -1.3040 H   0  0  0  0  0  0  0  0  0  0  0  0
   -4.5154    1.7220   -0.6832 H   0  0  0  0  0  0  0  0  0  0  0  0
   -4.0198    0.1959   -1.4166 H   0  0  0  0  0  0  0  0  0  0  0  0
   -4.6221    0.2531    0.2613 H   0  0  0  0  0  0  0  0  0  0  0  0
  1  2  1  0
  2  3  1  0
  4  3  1  6
  4  5  1  0
  4  6  2  0
  4  7  1  0
  7  8  1  0
  8  9  1  0
  9 10  1  0
 10 11  1  0
 11 12  1  0
 11 13  1  0
 10 14  1  0
 14 15  1  0
 14 16  1  0
  1 17  1  0
  1 18  1  0
  1 19  1  0
  2 20  1  0
  2 21  1  0
  5 22  1  0
  5 23  1  0
  5 24  1  0
  8 25  1  0
  8 26  1  0
  9 27  1  0
  9 28  1  0
 10 29  1  1
 11 30  1  6
 12 31  1  0
 12 32  1  0
 12 33  1  0
 13 34  1  0
 13 35  1  0
 13 36  1  0
 14 37  1  6
 15 38  1  0
 15 39  1  0
 15 40  1  0
 16 41  1  0
 16 42  1  0
 16 43  1  0
M  CHG  1  10   1
M  END
$$$$
