VX
     RDKit          3D

 43 42  0  0  0  0  0  0  0  0999 V2000
    3.4801   -2.0297   -1.2434 C   0  0  0  0  0  0  0  0  0  0  0  0
    3.5861   -0.5313   -1.0493 C   0  0  0  0  0  0  0  0  0  0  0  0
    3.0062   -0.1968    0.2027 O   0  0  0  0  0  0  0  0  0  0  0  0
    2.8324    1.3654    0.5707 P   0  0  1  0  0  0  0  0  0  0  0  0
    4.0393    2.1240    1.6393 C   0  0  0  0  0  0  0  0  0  0  0  0
    1.6870    2.1775    0.0351 O   0  0  0  0  0  0  0  0  0  0  0  0
    1.5355    0.7777    2.4528 S   0  0  0  0  0  0  0  0  0  0  0  0
    0.2031    2.0164    2.4352 C   0  0  0  0  0  0  0  0  0  0  0  0
   -0.9486    1.6488    1.4831 C   0  0  0  0  0  0  0  0  0  0  0  0
   -1.4174    0.1852    1.6616 N   0  0  2  0  0  0  0  0  0  0  0  0
   -1.6117   -0.5402    0.3020 C   0  0  1  0  0  0  0  0  0  0  0  0
   -0.2681   -0.6959   -0.4171 C   0  0  0  0  0  0  0  0  0  0  0  0
   -2.1998   -1.9424    0.4904 C   0  0  0  0  0  0  0  0  0  0  0  0
   -2.5885    0.0117    2.6465 C   0  0  1  0  0  0  0  0  0  0  0  0
   -2.2402    0.5442    4.0326 C   0  0  0  0  0  0  0  0  0  0  0  0
   -3.8795    0.6352    2.1185 C   0  0  0  0  0  0  0  0  0  0  0  0
    2.4326   -2.3481   -1.2174 H   0  0  0  0  0  0  0  0  0  0  0  0
    3.9944   -2.5607   -0.4358 H   0  0  0  0  0  0  0  0  0  0  0  0
    3.9174   -2.3316   -2.1993 H   0  0  0  0  0  0  0  0  0  0  0  0
    3.0551   -0.0115   -1.8527 H   0  0  0  0  0  0  0  0  0  0  0  0
    4.6357   -0.2238   -1.0577 H   0  0  0  0  0  0  0  0  0  0  0  0
    4.4581    1.3905    2.3341 H   0  0  0  0  0  0  0  0  0  0  0  0
    4.8595    2.5558    1.0595 H   0  0  0  0  0  0  0  0  0  0  0  0
    3.5804    2.9268    2.2235 H   0  0  0  0  0  0  0  0  0  0  0  0
    0.6163    2.9922    2.1598 H   0  0  0  0  0  0  0  0  0  0  0  0
   -0.1561    2.1186    3.4608 H   0  0  0  0  0  0  0  0  0  0  0  0
   -0.6493    1.7883    0.4433 H   0  0  0  0  0  0  0  0  0  0  0  0
   -1.8051    2.3072    1.6469 H   0  0  0  0  0  0  0  0  0  0  0  0
   -0.6125   -0.2957    2.0967 H   0  0  0  0  0  0  0  0  0  0  0  0
   -2.2910    0.0800   -0.2929 H   0  0  0  0  0  0  0  0  0  0  0  0
    0.1618    0.2616   -0.7129 H   0  0  0  0  0  0  0  0  0  0  0  0
   -0.3941   -1.2693   -1.3428 H   0  0  0  0  0  0  0  0  0  0  0  0
    0.4586   -1.2307    0.2027 H   0  0  0  0  0  0  0  0  0  0  0  0
   -2.2075   -2.4880   -0.4603 H   0  0  0  0  0  0  0  0  0  0  0  0
   -3.2394   -1.9120    0.8286 H   0  0  0  0  0  0  0  0  0  0  0  0
   -1.6145   -2.5305    1.2057 H   0  0  0  0  0  0  0  0  0  0  0  0
   -2.7237   -1.0672    2.7654 H   0  0  0  0  0  0  0  0  0  0  0  0
   -2.2207    1.6375    4.0603 H   0  0  0  0  0  0  0  0  0  0  0  0
   -1.2770    0.1572    4.3797 H   0  0  0  0  0  0  0  0  0  0  0  0
   -2.9987    0.2246    4.7566 H   0  0  0  0  0  0  0  0  0  0  0  0
   -4.1429    0.2672    1.1235 H   0  0  0  0  0  0  0  0  0  0  0  0
   -4.7126    0.3838    2.7849 H   0  0  0  0  0  0  0  0  0  0  0  0
   -3.8274    1.7267    2.0726 H   0  0  0  0  0  0  0  0  0  0  0  0
  1  2  1  0
  2  3  1  0
  4  3  1  6
  4  5  1  0
  4  6  2  0
  4  7  1  0
  7  8  1  0
  8  9  1  0
  9 10  1  0
 10 11  1  0
 11 12  1  0
 11 13  1  0
 10 14  1  0
 14 15  1  0
 14 16  1  0
  1 17  1  0
  1 18  1  0
  1 19  1  0
  2 20  1  0
  2 21  1  0
  5 22  1  0
  5 23  1  0
  5 24  1  0
  8 25  1  0
  8 26  1  0
  9 27  1  0
  9 28  1  0
 10 29  1  1
 11 30  1  1
 12 31  1  0
 12 32  1  0
 12 33  1  0
 13 34  1  0
 13 35  1  0
 13 36  1  0
 14 37  1  6
 15 38  1  0
 15 39  1  0
 15 40  1  0
 16 41  1  0
 16 42  1  0
 16 43  1  0
M  CHG  1  10   1
M  END
$$$$
