VX
     RDKit          3D

 43 42  0  0  0  0  0  0  0  0999 V2000
    3.5610   -2.0387   -1.2083 C   0  0  0  0  0  0  0  0  0  0  0  0
    3.5994   -0.5340   -1.0436 C   0  0  0  0  0  0  0  0  0  0  0  0
    3.0030   -0.1979    0.2002 O   0  0  0  0  0  0  0  0  0  0  0  0
    2.8352    1.3649    0.5725 P   0  0  1  0  0  0  0  0  0  0  0  0
    4.0404    2.1271    1.6410 C   0  0  0  0  0  0  0  0  0  0  0  0
    1.6864    2.1760    0.0341 O   0  0  0  0  0  0  0  0  0  0  0  0
    1.5383    0.7772    2.4546 S   0  0  0  0  0  0  0  0  0  0  0  0
   -0.0806    0.3959    1.7168 C   0  0  0  0  0  0  0  0  0  0  0  0
   -0.8743    1.6835    1.4770 C   0  0  0  0  0  0  0  0  0  0  0  0
   -2.0088    1.5722    0.4445 N   0  0  2  0  0  0  0  0  0  0  0  0
   -3.3478    1.1058    1.0161 C   0  0  2  0  0  0  0  0  0  0  0  0
   -3.4263   -0.3775    1.3498 C   0  0  0  0  0  0  0  0  0  0  0  0
   -4.5075    1.5458    0.1277 C   0  0  0  0  0  0  0  0  0  0  0  0
   -1.5093    1.1946   -0.9597 C   0  0  2  0  0  0  0  0  0  0  0  0
   -2.0268    2.1973   -1.9922 C   0  0  0  0  0  0  0  0  0  0  0  0
   -1.8117   -0.2381   -1.3690 C   0  0  0  0  0  0  0  0  0  0  0  0
    2.5309   -2.4096   -1.1535 H   0  0  0  0  0  0  0  0  0  0  0  0
    3.9938   -2.3365   -2.1677 H   0  0  0  0  0  0  0  0  0  0  0  0
    4.1179   -2.5289   -0.4013 H   0  0  0  0  0  0  0  0  0  0  0  0
    3.0435   -0.0548   -1.8541 H   0  0  0  0  0  0  0  0  0  0  0  0
    4.6342   -0.1807   -1.0636 H   0  0  0  0  0  0  0  0  0  0  0  0
    3.5736    2.9095    2.2456 H   0  0  0  0  0  0  0  0  0  0  0  0
    4.4823    1.3878    2.3149 H   0  0  0  0  0  0  0  0  0  0  0  0
    4.8452    2.5859    1.0603 H   0  0  0  0  0  0  0  0  0  0  0  0
    0.0992   -0.1717    0.8036 H   0  0  0  0  0  0  0  0  0  0  0  0
   -0.6035   -0.2503    2.4238 H   0  0  0  0  0  0  0  0  0  0  0  0
   -0.2466    2.5025    1.1112 H   0  0  0  0  0  0  0  0  0  0  0  0
   -1.3272    2.0346    2.4119 H   0  0  0  0  0  0  0  0  0  0  0  0
   -2.2020    2.5758    0.3234 H   0  0  0  0  0  0  0  0  0  0  0  0
   -3.4514    1.6615    1.9569 H   0  0  0  0  0  0  0  0  0  0  0  0
   -4.3312   -0.5687    1.9405 H   0  0  0  0  0  0  0  0  0  0  0  0
   -2.5861   -0.7195    1.9529 H   0  0  0  0  0  0  0  0  0  0  0  0
   -3.5063   -1.0119    0.4651 H   0  0  0  0  0  0  0  0  0  0  0  0
   -5.4602    1.3899    0.6492 H   0  0  0  0  0  0  0  0  0  0  0  0
   -4.5562    0.9731   -0.8032 H   0  0  0  0  0  0  0  0  0  0  0  0
   -4.4434    2.6110   -0.1168 H   0  0  0  0  0  0  0  0  0  0  0  0
   -0.4223    1.3155   -0.9344 H   0  0  0  0  0  0  0  0  0  0  0  0
   -3.1045    2.1185   -2.1479 H   0  0  0  0  0  0  0  0  0  0  0  0
   -1.7957    3.2264   -1.6985 H   0  0  0  0  0  0  0  0  0  0  0  0
   -1.5481    2.0220   -2.9623 H   0  0  0  0  0  0  0  0  0  0  0  0
   -2.8745   -0.3954   -1.5698 H   0  0  0  0  0  0  0  0  0  0  0  0
   -1.4758   -0.9617   -0.6213 H   0  0  0  0  0  0  0  0  0  0  0  0
   -1.2828   -0.4764   -2.3008 H   0  0  0  0  0  0  0  0  0  0  0  0
  1  2  1  0
  2  3  1  0
  4  3  1  6
  4  5  1  0
  4  6  2  0
  4  7  1  0
  7  8  1  0
  8  9  1  0
  9 10  1  0
 10 11  1  0
 11 12  1  0
 11 13  1  0
 10 14  1  0
 14 15  1  0
 14 16  1  0
  1 17  1  0
  1 18  1  0
  1 19  1  0
  2 20  1  0
  2 21  1  0
  5 22  1  0
  5 23  1  0
  5 24  1  0
  8 25  1  0
  8 26  1  0
  9 27  1  0
  9 28  1  0
 10 29  1  6
 11 30  1  1
 12 31  1  0
 12 32  1  0
 12 33  1  0
 13 34  1  0
 13 35  1  0
 13 36  1  0
 14 37  1  1
 15 38  1  0
 15 39  1  0
 15 40  1  0
 16 41  1  0
 16 42  1  0
 16 43  1  0
M  CHG  1  10   1
M  END
$$$$
