VX
     RDKit          3D

 43 42  0  0  0  0  0  0  0  0999 V2000
    3.6357   -2.0317   -1.1823 C   0  0  0  0  0  0  0  0  0  0  0  0
    3.5076   -0.5258   -1.0839 C   0  0  0  0  0  0  0  0  0  0  0  0
    3.0096   -0.1972    0.2049 O   0  0  0  0  0  0  0  0  0  0  0  0
    2.8297    1.3659    0.5691 P   0  0  1  0  0  0  0  0  0  0  0  0
    4.0390    2.1215    1.6383 C   0  0  0  0  0  0  0  0  0  0  0  0
    1.6866    2.1799    0.0355 O   0  0  0  0  0  0  0  0  0  0  0  0
    1.5329    0.7782    2.4512 S   0  0  0  0  0  0  0  0  0  0  0  0
    0.1689   -0.1521    1.6767 C   0  0  0  0  0  0  0  0  0  0  0  0
   -1.0077   -0.3003    2.6419 C   0  0  0  0  0  0  0  0  0  0  0  0
   -1.4653    1.0502    3.2066 N   0  0  1  0  0  0  0  0  0  0  0  0
   -2.2983    1.9647    2.2830 C   0  0  2  0  0  0  0  0  0  0  0  0
   -3.1288    1.1990    1.2594 C   0  0  0  0  0  0  0  0  0  0  0  0
   -1.3900    2.9956    1.6180 C   0  0  0  0  0  0  0  0  0  0  0  0
   -2.0411    0.9879    4.6295 C   0  0  1  0  0  0  0  0  0  0  0  0
   -3.2315    0.0406    4.7083 C   0  0  0  0  0  0  0  0  0  0  0  0
   -0.9465    0.6300    5.6347 C   0  0  0  0  0  0  0  0  0  0  0  0
    4.0145   -2.3281   -2.1644 H   0  0  0  0  0  0  0  0  0  0  0  0
    4.3148   -2.4121   -0.4120 H   0  0  0  0  0  0  0  0  0  0  0  0
    2.6659   -2.5129   -1.0174 H   0  0  0  0  0  0  0  0  0  0  0  0
    2.8131   -0.1573   -1.8451 H   0  0  0  0  0  0  0  0  0  0  0  0
    4.4834   -0.0551   -1.2338 H   0  0  0  0  0  0  0  0  0  0  0  0
    4.4528    1.3871    2.3351 H   0  0  0  0  0  0  0  0  0  0  0  0
    3.5832    2.9276    2.2202 H   0  0  0  0  0  0  0  0  0  0  0  0
    4.8628    2.5475    1.0596 H   0  0  0  0  0  0  0  0  0  0  0  0
   -0.1425    0.3576    0.7622 H   0  0  0  0  0  0  0  0  0  0  0  0
    0.5412   -1.1402    1.3887 H   0  0  0  0  0  0  0  0  0  0  0  0
   -0.6926   -0.9241    3.4830 H   0  0  0  0  0  0  0  0  0  0  0  0
   -1.8632   -0.7988    2.1791 H   0  0  0  0  0  0  0  0  0  0  0  0
   -0.5713    1.5524    3.3355 H   0  0  0  0  0  0  0  0  0  0  0  0
   -2.9887    2.5163    2.9313 H   0  0  0  0  0  0  0  0  0  0  0  0
   -3.7700    0.4504    1.7330 H   0  0  0  0  0  0  0  0  0  0  0  0
   -2.5065    0.7022    0.5089 H   0  0  0  0  0  0  0  0  0  0  0  0
   -3.7857    1.8907    0.7196 H   0  0  0  0  0  0  0  0  0  0  0  0
   -0.7174    2.5410    0.8880 H   0  0  0  0  0  0  0  0  0  0  0  0
   -0.7881    3.5327    2.3585 H   0  0  0  0  0  0  0  0  0  0  0  0
   -1.9915    3.7393    1.0836 H   0  0  0  0  0  0  0  0  0  0  0  0
   -2.3681    2.0068    4.8691 H   0  0  0  0  0  0  0  0  0  0  0  0
   -3.6466    0.0398    5.7223 H   0  0  0  0  0  0  0  0  0  0  0  0
   -4.0339    0.3487    4.0323 H   0  0  0  0  0  0  0  0  0  0  0  0
   -2.9559   -0.9909    4.4683 H   0  0  0  0  0  0  0  0  0  0  0  0
   -0.6089   -0.4058    5.5410 H   0  0  0  0  0  0  0  0  0  0  0  0
   -0.0779    1.2877    5.5259 H   0  0  0  0  0  0  0  0  0  0  0  0
   -1.3236    0.7520    6.6564 H   0  0  0  0  0  0  0  0  0  0  0  0
  1  2  1  0
  2  3  1  0
  4  3  1  6
  4  5  1  0
  4  6  2  0
  4  7  1  0
  7  8  1  0
  8  9  1  0
  9 10  1  0
 10 11  1  0
 11 12  1  0
 11 13  1  0
 10 14  1  0
 14 15  1  0
 14 16  1  0
  1 17  1  0
  1 18  1  0
  1 19  1  0
  2 20  1  0
  2 21  1  0
  5 22  1  0
  5 23  1  0
  5 24  1  0
  8 25  1  0
  8 26  1  0
  9 27  1  0
  9 28  1  0
 10 29  1  6
 11 30  1  1
 12 31  1  0
 12 32  1  0
 12 33  1  0
 13 34  1  0
 13 35  1  0
 13 36  1  0
 14 37  1  6
 15 38  1  0
 15 39  1  0
 15 40  1  0
 16 41  1  0
 16 42  1  0
 16 43  1  0
M  CHG  1  10   1
M  END
$$$$
