VX
     RDKit          3D

 43 42  0  0  0  0  0  0  0  0999 V2000
    4.8346   -1.7006    0.3993 C   0  0  0  0  0  0  0  0  0  0  0  0
    3.6199   -1.1050    1.0817 C   0  0  0  0  0  0  0  0  0  0  0  0
    2.9914   -0.1958    0.1928 O   0  0  0  0  0  0  0  0  0  0  0  0
    2.8409    1.3639    0.5761 P   0  0  1  0  0  0  0  0  0  0  0  0
    4.0414    2.1362    1.6445 C   0  0  0  0  0  0  0  0  0  0  0  0
    1.6913    2.1658    0.0343 O   0  0  0  0  0  0  0  0  0  0  0  0
    1.5440    0.7762    2.4582 S   0  0  0  0  0  0  0  0  0  0  0  0
    0.0296    0.0883    1.7267 C   0  0  0  0  0  0  0  0  0  0  0  0
   -0.8890    1.1874    1.1823 C   0  0  0  0  0  0  0  0  0  0  0  0
   -2.1747    0.6363    0.5294 N   0  0  2  0  0  0  0  0  0  0  0  0
   -3.1451    0.0970    1.6010 C   0  0  2  0  0  0  0  0  0  0  0  0
   -3.1536   -1.4250    1.6995 C   0  0  0  0  0  0  0  0  0  0  0  0
   -4.5376    0.6864    1.3894 C   0  0  0  0  0  0  0  0  0  0  0  0
   -1.9574   -0.2018   -0.7502 C   0  0  1  0  0  0  0  0  0  0  0  0
   -3.2598   -0.3017   -1.5469 C   0  0  0  0  0  0  0  0  0  0  0  0
   -0.9026    0.4382   -1.6563 C   0  0  0  0  0  0  0  0  0  0  0  0
    5.3200   -2.4388    1.0467 H   0  0  0  0  0  0  0  0  0  0  0  0
    4.5517   -2.1871   -0.5430 H   0  0  0  0  0  0  0  0  0  0  0  0
    5.5600   -0.9168    0.1483 H   0  0  0  0  0  0  0  0  0  0  0  0
    3.9058   -0.6172    2.0183 H   0  0  0  0  0  0  0  0  0  0  0  0
    2.8987   -1.8939    1.3213 H   0  0  0  0  0  0  0  0  0  0  0  0
    4.4334    1.4355    2.3891 H   0  0  0  0  0  0  0  0  0  0  0  0
    3.5849    2.9770    2.1816 H   0  0  0  0  0  0  0  0  0  0  0  0
    4.8817    2.5233    1.0565 H   0  0  0  0  0  0  0  0  0  0  0  0
    0.3157   -0.6248    0.9489 H   0  0  0  0  0  0  0  0  0  0  0  0
   -0.4750   -0.4690    2.5210 H   0  0  0  0  0  0  0  0  0  0  0  0
   -1.2202    1.8575    1.9862 H   0  0  0  0  0  0  0  0  0  0  0  0
   -0.4203    1.8237    0.4325 H   0  0  0  0  0  0  0  0  0  0  0  0
   -2.6146    1.4990    0.1788 H   0  0  0  0  0  0  0  0  0  0  0  0
   -2.7879    0.4885    2.5618 H   0  0  0  0  0  0  0  0  0  0  0  0
   -3.6357   -1.9033    0.8426 H   0  0  0  0  0  0  0  0  0  0  0  0
   -2.1448   -1.8357    1.7962 H   0  0  0  0  0  0  0  0  0  0  0  0
   -3.7152   -1.7342    2.5894 H   0  0  0  0  0  0  0  0  0  0  0  0
   -4.5003    1.7783    1.3579 H   0  0  0  0  0  0  0  0  0  0  0  0
   -5.0126    0.3393    0.4703 H   0  0  0  0  0  0  0  0  0  0  0  0
   -5.1932    0.4061    2.2189 H   0  0  0  0  0  0  0  0  0  0  0  0
   -1.6148   -1.1927   -0.4400 H   0  0  0  0  0  0  0  0  0  0  0  0
   -3.0868   -0.8038   -2.5072 H   0  0  0  0  0  0  0  0  0  0  0  0
   -3.6738    0.6889   -1.7615 H   0  0  0  0  0  0  0  0  0  0  0  0
   -4.0200   -0.8892   -1.0318 H   0  0  0  0  0  0  0  0  0  0  0  0
   -0.8499   -0.0865   -2.6179 H   0  0  0  0  0  0  0  0  0  0  0  0
   -1.1310    1.4887   -1.8630 H   0  0  0  0  0  0  0  0  0  0  0  0
    0.0974    0.3750   -1.2198 H   0  0  0  0  0  0  0  0  0  0  0  0
  1  2  1  0
  2  3  1  0
  4  3  1  6
  4  5  1  0
  4  6  2  0
  4  7  1  0
  7  8  1  0
  8  9  1  0
  9 10  1  0
 10 11  1  0
 11 12  1  0
 11 13  1  0
 10 14  1  0
 14 15  1  0
 14 16  1  0
  1 17  1  0
  1 18  1  0
  1 19  1  0
  2 20  1  0
  2 21  1  0
  5 22  1  0
  5 23  1  0
  5 24  1  0
  8 25  1  0
  8 26  1  0
  9 27  1  0
  9 28  1  0
 10 29  1  6
 11 30  1  1
 12 31  1  0
 12 32  1  0
 12 33  1  0
 13 34  1  0
 13 35  1  0
 13 36  1  0
 14 37  1  6
 15 38  1  0
 15 39  1  0
 15 40  1  0
 16 41  1  0
 16 42  1  0
 16 43  1  0
M  CHG  1  10   1
M  END
$$$$
