VX
     RDKit          3D

 43 42  0  0  0  0  0  0  0  0999 V2000
    4.8464   -1.6886    0.3377 C   0  0  0  0  0  0  0  0  0  0  0  0
    3.6470   -1.1053    1.0552 C   0  0  0  0  0  0  0  0  0  0  0  0
    2.9856   -0.1974    0.1883 O   0  0  0  0  0  0  0  0  0  0  0  0
    2.8451    1.3642    0.5791 P   0  0  1  0  0  0  0  0  0  0  0  0
    4.0411    2.1413    1.6459 C   0  0  0  0  0  0  0  0  0  0  0  0
    1.6932    2.1620    0.0345 O   0  0  0  0  0  0  0  0  0  0  0  0
    1.5482    0.7765    2.4612 S   0  0  0  0  0  0  0  0  0  0  0  0
   -0.1725    0.9618    1.8967 C   0  0  0  0  0  0  0  0  0  0  0  0
   -0.4748    0.0979    0.6673 C   0  0  0  0  0  0  0  0  0  0  0  0
   -1.9647    0.1061    0.2625 N   0  0  2  0  0  0  0  0  0  0  0  0
   -2.5131    1.4656   -0.2230 C   0  0  2  0  0  0  0  0  0  0  0  0
   -3.8187    1.2619   -0.9962 C   0  0  0  0  0  0  0  0  0  0  0  0
   -1.5219    2.1551   -1.1641 C   0  0  0  0  0  0  0  0  0  0  0  0
   -2.8104   -0.7022    1.2701 C   0  0  1  0  0  0  0  0  0  0  0  0
   -3.6144    0.1670    2.2315 C   0  0  0  0  0  0  0  0  0  0  0  0
   -3.6759   -1.7175    0.5266 C   0  0  0  0  0  0  0  0  0  0  0  0
    5.3635   -2.4155    0.9702 H   0  0  0  0  0  0  0  0  0  0  0  0
    4.5385   -2.1831   -0.5895 H   0  0  0  0  0  0  0  0  0  0  0  0
    5.5520   -0.8996    0.0581 H   0  0  0  0  0  0  0  0  0  0  0  0
    3.9553   -0.6188    1.9851 H   0  0  0  0  0  0  0  0  0  0  0  0
    2.9398   -1.9000    1.3117 H   0  0  0  0  0  0  0  0  0  0  0  0
    4.8923    2.5046    1.0631 H   0  0  0  0  0  0  0  0  0  0  0  0
    4.4154    1.4541    2.4089 H   0  0  0  0  0  0  0  0  0  0  0  0
    3.5906    2.9967    2.1577 H   0  0  0  0  0  0  0  0  0  0  0  0
   -0.7989    0.6669    2.7411 H   0  0  0  0  0  0  0  0  0  0  0  0
   -0.3624    2.0196    1.6959 H   0  0  0  0  0  0  0  0  0  0  0  0
    0.0888    0.3942   -0.2193 H   0  0  0  0  0  0  0  0  0  0  0  0
   -0.2213   -0.9536    0.8511 H   0  0  0  0  0  0  0  0  0  0  0  0
   -1.9523   -0.4641   -0.5942 H   0  0  0  0  0  0  0  0  0  0  0  0
   -2.6735    2.0914    0.6601 H   0  0  0  0  0  0  0  0  0  0  0  0
   -4.1558    2.2068   -1.4378 H   0  0  0  0  0  0  0  0  0  0  0  0
   -4.6353    0.9192   -0.3596 H   0  0  0  0  0  0  0  0  0  0  0  0
   -3.6928    0.5415   -1.8120 H   0  0  0  0  0  0  0  0  0  0  0  0
   -1.9746    3.0417   -1.6227 H   0  0  0  0  0  0  0  0  0  0  0  0
   -0.6410    2.5110   -0.6273 H   0  0  0  0  0  0  0  0  0  0  0  0
   -1.1994    1.4897   -1.9722 H   0  0  0  0  0  0  0  0  0  0  0  0
   -2.0979   -1.2833    1.8679 H   0  0  0  0  0  0  0  0  0  0  0  0
   -4.4554    0.6691    1.7484 H   0  0  0  0  0  0  0  0  0  0  0  0
   -4.0385   -0.4575    3.0263 H   0  0  0  0  0  0  0  0  0  0  0  0
   -2.9975    0.9282    2.7156 H   0  0  0  0  0  0  0  0  0  0  0  0
   -4.1830   -2.3754    1.2411 H   0  0  0  0  0  0  0  0  0  0  0  0
   -4.4484   -1.2487   -0.0862 H   0  0  0  0  0  0  0  0  0  0  0  0
   -3.0646   -2.3517   -0.1245 H   0  0  0  0  0  0  0  0  0  0  0  0
  1  2  1  0
  2  3  1  0
  4  3  1  6
  4  5  1  0
  4  6  2  0
  4  7  1  0
  7  8  1  0
  8  9  1  0
  9 10  1  0
 10 11  1  0
 11 12  1  0
 11 13  1  0
 10 14  1  0
 14 15  1  0
 14 16  1  0
  1 17  1  0
  1 18  1  0
  1 19  1  0
  2 20  1  0
  2 21  1  0
  5 22  1  0
  5 23  1  0
  5 24  1  0
  8 25  1  0
  8 26  1  0
  9 27  1  0
  9 28  1  0
 10 29  1  6
 11 30  1  1
 12 31  1  0
 12 32  1  0
 12 33  1  0
 13 34  1  0
 13 35  1  0
 13 36  1  0
 14 37  1  6
 15 38  1  0
 15 39  1  0
 15 40  1  0
 16 41  1  0
 16 42  1  0
 16 43  1  0
M  CHG  1  10   1
M  END
$$$$
