VX
     RDKit          3D

 43 42  0  0  0  0  0  0  0  0999 V2000
    2.4264   -1.0947   -1.9409 C   0  0  0  0  0  0  0  0  0  0  0  0
    3.5364   -0.5404   -1.0716 C   0  0  0  0  0  0  0  0  0  0  0  0
    2.9984   -0.1975    0.1971 O   0  0  0  0  0  0  0  0  0  0  0  0
    2.8376    1.3651    0.5742 P   0  0  1  0  0  0  0  0  0  0  0  0
    4.0398    2.1307    1.6417 C   0  0  0  0  0  0  0  0  0  0  0  0
    1.6891    2.1719    0.0348 O   0  0  0  0  0  0  0  0  0  0  0  0
    1.5407    0.7774    2.4563 S   0  0  0  0  0  0  0  0  0  0  0  0
   -0.1029    1.4549    2.0595 C   0  0  0  0  0  0  0  0  0  0  0  0
   -0.7322    0.8776    0.7787 C   0  0  0  0  0  0  0  0  0  0  0  0
   -1.7832   -0.2345    0.9965 N   0  0  2  0  0  0  0  0  0  0  0  0
   -3.2050    0.2544    1.3275 C   0  0  2  0  0  0  0  0  0  0  0  0
   -3.7471    1.1485    0.2105 C   0  0  0  0  0  0  0  0  0  0  0  0
   -3.2984    0.9282    2.6873 C   0  0  0  0  0  0  0  0  0  0  0  0
   -1.2564   -1.4418    1.8068 C   0  0  1  0  0  0  0  0  0  0  0  0
   -2.3625   -2.4560    2.1091 C   0  0  0  0  0  0  0  0  0  0  0  0
   -0.1696   -2.1559    0.9945 C   0  0  0  0  0  0  0  0  0  0  0  0
    2.8102   -1.3937   -2.9202 H   0  0  0  0  0  0  0  0  0  0  0  0
    1.6375   -0.3491   -2.0834 H   0  0  0  0  0  0  0  0  0  0  0  0
    1.9601   -1.9629   -1.4634 H   0  0  0  0  0  0  0  0  0  0  0  0
    4.0032    0.3265   -1.5502 H   0  0  0  0  0  0  0  0  0  0  0  0
    4.3100   -1.2984   -0.9163 H   0  0  0  0  0  0  0  0  0  0  0  0
    4.8733    2.5395    1.0643 H   0  0  0  0  0  0  0  0  0  0  0  0
    4.4416    1.4067    2.3562 H   0  0  0  0  0  0  0  0  0  0  0  0
    3.5837    2.9502    2.2043 H   0  0  0  0  0  0  0  0  0  0  0  0
    0.0277    2.5350    1.9347 H   0  0  0  0  0  0  0  0  0  0  0  0
   -0.7280    1.3103    2.9402 H   0  0  0  0  0  0  0  0  0  0  0  0
   -1.2347    1.6766    0.2294 H   0  0  0  0  0  0  0  0  0  0  0  0
    0.0023    0.4569    0.0868 H   0  0  0  0  0  0  0  0  0  0  0  0
   -1.9016   -0.6244    0.0515 H   0  0  0  0  0  0  0  0  0  0  0  0
   -3.8376   -0.6374    1.3224 H   0  0  0  0  0  0  0  0  0  0  0  0
   -4.8276    1.2838    0.3331 H   0  0  0  0  0  0  0  0  0  0  0  0
   -3.5811    0.7010   -0.7750 H   0  0  0  0  0  0  0  0  0  0  0  0
   -3.3016    2.1479    0.2206 H   0  0  0  0  0  0  0  0  0  0  0  0
   -4.3501    1.0746    2.9585 H   0  0  0  0  0  0  0  0  0  0  0  0
   -2.8412    0.3256    3.4773 H   0  0  0  0  0  0  0  0  0  0  0  0
   -2.8353    1.9193    2.6842 H   0  0  0  0  0  0  0  0  0  0  0  0
   -0.8594   -1.0572    2.7497 H   0  0  0  0  0  0  0  0  0  0  0  0
   -3.0982   -2.0574    2.8139 H   0  0  0  0  0  0  0  0  0  0  0  0
   -1.9418   -3.3524    2.5792 H   0  0  0  0  0  0  0  0  0  0  0  0
   -2.8807   -2.7729    1.1976 H   0  0  0  0  0  0  0  0  0  0  0  0
    0.6877   -1.5172    0.7781 H   0  0  0  0  0  0  0  0  0  0  0  0
    0.2129   -3.0219    1.5463 H   0  0  0  0  0  0  0  0  0  0  0  0
   -0.5630   -2.5187    0.0382 H   0  0  0  0  0  0  0  0  0  0  0  0
  1  2  1  0
  2  3  1  0
  4  3  1  6
  4  5  1  0
  4  6  2  0
  4  7  1  0
  7  8  1  0
  8  9  1  0
  9 10  1  0
 10 11  1  0
 11 12  1  0
 11 13  1  0
 10 14  1  0
 14 15  1  0
 14 16  1  0
  1 17  1  0
  1 18  1  0
  1 19  1  0
  2 20  1  0
  2 21  1  0
  5 22  1  0
  5 23  1  0
  5 24  1  0
  8 25  1  0
  8 26  1  0
  9 27  1  0
  9 28  1  0
 10 29  1  6
 11 30  1  1
 12 31  1  0
 12 32  1  0
 12 33  1  0
 13 34  1  0
 13 35  1  0
 13 36  1  0
 14 37  1  6
 15 38  1  0
 15 39  1  0
 15 40  1  0
 16 41  1  0
 16 42  1  0
 16 43  1  0
M  CHG  1  10   1
M  END
$$$$
