VX
     RDKit          3D

 43 42  0  0  0  0  0  0  0  0999 V2000
    4.8364   -1.7002    0.3452 C   0  0  0  0  0  0  0  0  0  0  0  0
    3.6399   -1.1065    1.0594 C   0  0  0  0  0  0  0  0  0  0  0  0
    2.9857   -0.1973    0.1884 O   0  0  0  0  0  0  0  0  0  0  0  0
    2.8452    1.3641    0.5792 P   0  0  1  0  0  0  0  0  0  0  0  0
    4.0412    2.1412    1.6459 C   0  0  0  0  0  0  0  0  0  0  0  0
    1.6928    2.1622    0.0343 O   0  0  0  0  0  0  0  0  0  0  0  0
    1.5483    0.7764    2.4613 S   0  0  0  0  0  0  0  0  0  0  0  0
   -0.1603    0.9981    1.8850 C   0  0  0  0  0  0  0  0  0  0  0  0
   -0.4907    0.0978    0.6863 C   0  0  0  0  0  0  0  0  0  0  0  0
   -1.9832    0.2343    0.3023 N   0  0  1  0  0  0  0  0  0  0  0  0
   -2.1915    0.7486   -1.1363 C   0  0  1  0  0  0  0  0  0  0  0  0
   -1.5917    2.1452   -1.2940 C   0  0  0  0  0  0  0  0  0  0  0  0
   -1.6689   -0.2377   -2.1755 C   0  0  0  0  0  0  0  0  0  0  0  0
   -2.7983   -1.0251    0.6721 C   0  0  2  0  0  0  0  0  0  0  0  0
   -4.2624   -0.8803    0.2536 C   0  0  0  0  0  0  0  0  0  0  0  0
   -2.7440   -1.2469    2.1873 C   0  0  0  0  0  0  0  0  0  0  0  0
    4.5260   -2.1982   -0.5793 H   0  0  0  0  0  0  0  0  0  0  0  0
    5.3496   -2.4264    0.9818 H   0  0  0  0  0  0  0  0  0  0  0  0
    5.5463   -0.9165    0.0613 H   0  0  0  0  0  0  0  0  0  0  0  0
    3.9509   -0.6187    1.9878 H   0  0  0  0  0  0  0  0  0  0  0  0
    2.9273   -1.8956    1.3180 H   0  0  0  0  0  0  0  0  0  0  0  0
    3.5902    2.9951    2.1598 H   0  0  0  0  0  0  0  0  0  0  0  0
    4.4171    1.4531    2.4073 H   0  0  0  0  0  0  0  0  0  0  0  0
    4.8912    2.5064    1.0628 H   0  0  0  0  0  0  0  0  0  0  0  0
   -0.3094    2.0507    1.6238 H   0  0  0  0  0  0  0  0  0  0  0  0
   -0.8205    0.7788    2.7288 H   0  0  0  0  0  0  0  0  0  0  0  0
    0.1098    0.3568   -0.1850 H   0  0  0  0  0  0  0  0  0  0  0  0
   -0.2986   -0.9590    0.8997 H   0  0  0  0  0  0  0  0  0  0  0  0
   -2.3749    0.9843    0.8874 H   0  0  0  0  0  0  0  0  0  0  0  0
   -3.2712    0.8701   -1.2611 H   0  0  0  0  0  0  0  0  0  0  0  0
   -1.9152    2.8100   -0.4863 H   0  0  0  0  0  0  0  0  0  0  0  0
   -0.5000    2.1321   -1.3153 H   0  0  0  0  0  0  0  0  0  0  0  0
   -1.9229    2.5892   -2.2394 H   0  0  0  0  0  0  0  0  0  0  0  0
   -2.1457   -1.2174   -2.0793 H   0  0  0  0  0  0  0  0  0  0  0  0
   -0.5862   -0.3802   -2.1133 H   0  0  0  0  0  0  0  0  0  0  0  0
   -1.8886    0.1301   -3.1839 H   0  0  0  0  0  0  0  0  0  0  0  0
   -2.3375   -1.8714    0.1511 H   0  0  0  0  0  0  0  0  0  0  0  0
   -4.6952    0.0572    0.6192 H   0  0  0  0  0  0  0  0  0  0  0  0
   -4.3791   -0.9199   -0.8335 H   0  0  0  0  0  0  0  0  0  0  0  0
   -4.8623   -1.7047    0.6553 H   0  0  0  0  0  0  0  0  0  0  0  0
   -3.1050   -0.3680    2.7327 H   0  0  0  0  0  0  0  0  0  0  0  0
   -3.3720   -2.0983    2.4734 H   0  0  0  0  0  0  0  0  0  0  0  0
   -1.7332   -1.4762    2.5356 H   0  0  0  0  0  0  0  0  0  0  0  0
  1  2  1  0
  2  3  1  0
  4  3  1  6
  4  5  1  0
  4  6  2  0
  4  7  1  0
  7  8  1  0
  8  9  1  0
  9 10  1  0
 10 11  1  0
 11 12  1  0
 11 13  1  0
 10 14  1  0
 14 15  1  0
 14 16  1  0
  1 17  1  0
  1 18  1  0
  1 19  1  0
  2 20  1  0
  2 21  1  0
  5 22  1  0
  5 23  1  0
  5 24  1  0
  8 25  1  0
  8 26  1  0
  9 27  1  0
  9 28  1  0
 10 29  1  6
 11 30  1  1
 12 31  1  0
 12 32  1  0
 12 33  1  0
 13 34  1  0
 13 35  1  0
 13 36  1  0
 14 37  1  6
 15 38  1  0
 15 39  1  0
 15 40  1  0
 16 41  1  0
 16 42  1  0
 16 43  1  0
M  CHG  1  10   1
M  END
$$$$
