VX
     RDKit          3D

 43 42  0  0  0  0  0  0  0  0999 V2000
    3.4004   -1.9981   -1.3111 C   0  0  0  0  0  0  0  0  0  0  0  0
    3.6512   -0.5333   -1.0185 C   0  0  0  0  0  0  0  0  0  0  0  0
    2.9977   -0.1979    0.1965 O   0  0  0  0  0  0  0  0  0  0  0  0
    2.8378    1.3652    0.5744 P   0  0  1  0  0  0  0  0  0  0  0  0
    4.0399    2.1315    1.6420 C   0  0  0  0  0  0  0  0  0  0  0  0
    1.6895    2.1714    0.0349 O   0  0  0  0  0  0  0  0  0  0  0  0
    1.5409    0.7775    2.4565 S   0  0  0  0  0  0  0  0  0  0  0  0
    0.0528    0.0499    1.7224 C   0  0  0  0  0  0  0  0  0  0  0  0
   -0.8938    1.1267    1.1791 C   0  0  0  0  0  0  0  0  0  0  0  0
   -2.1285    0.4742    0.5131 N   0  0  2  0  0  0  0  0  0  0  0  0
   -2.0835    0.6165   -1.0292 C   0  0  2  0  0  0  0  0  0  0  0  0
   -3.3334    0.0154   -1.6746 C   0  0  0  0  0  0  0  0  0  0  0  0
   -0.8535   -0.1152   -1.5767 C   0  0  0  0  0  0  0  0  0  0  0  0
   -3.4571    0.8856    1.1694 C   0  0  2  0  0  0  0  0  0  0  0  0
   -3.7309    2.3782    1.0160 C   0  0  0  0  0  0  0  0  0  0  0  0
   -3.4863    0.4289    2.6289 C   0  0  0  0  0  0  0  0  0  0  0  0
    3.7731   -2.6243   -0.4938 H   0  0  0  0  0  0  0  0  0  0  0  0
    3.8917   -2.3005   -2.2401 H   0  0  0  0  0  0  0  0  0  0  0  0
    2.3266   -2.1947   -1.3986 H   0  0  0  0  0  0  0  0  0  0  0  0
    3.2619    0.0831   -1.8345 H   0  0  0  0  0  0  0  0  0  0  0  0
    4.7241   -0.3490   -0.9127 H   0  0  0  0  0  0  0  0  0  0  0  0
    4.8594    2.5644    1.0622 H   0  0  0  0  0  0  0  0  0  0  0  0
    3.5776    2.9347    2.2229 H   0  0  0  0  0  0  0  0  0  0  0  0
    4.4606    1.4020    2.3400 H   0  0  0  0  0  0  0  0  0  0  0  0
   -0.4555   -0.5307    2.4992 H   0  0  0  0  0  0  0  0  0  0  0  0
    0.3569   -0.6501    0.9397 H   0  0  0  0  0  0  0  0  0  0  0  0
   -0.4400    1.7835    0.4365 H   0  0  0  0  0  0  0  0  0  0  0  0
   -1.2362    1.7650    1.9974 H   0  0  0  0  0  0  0  0  0  0  0  0
   -2.0657   -0.5383    0.6817 H   0  0  0  0  0  0  0  0  0  0  0  0
   -2.0196    1.6869   -1.2532 H   0  0  0  0  0  0  0  0  0  0  0  0
   -3.2267   -0.0183   -2.7648 H   0  0  0  0  0  0  0  0  0  0  0  0
   -4.2237    0.6188   -1.4737 H   0  0  0  0  0  0  0  0  0  0  0  0
   -3.5156   -1.0064   -1.3248 H   0  0  0  0  0  0  0  0  0  0  0  0
   -0.8436   -0.0830   -2.6720 H   0  0  0  0  0  0  0  0  0  0  0  0
   -0.8467   -1.1679   -1.2739 H   0  0  0  0  0  0  0  0  0  0  0  0
    0.0813    0.3428   -1.2450 H   0  0  0  0  0  0  0  0  0  0  0  0
   -4.2398    0.3169    0.6591 H   0  0  0  0  0  0  0  0  0  0  0  0
   -4.7097    2.6248    1.4426 H   0  0  0  0  0  0  0  0  0  0  0  0
   -3.7529    2.6799   -0.0351 H   0  0  0  0  0  0  0  0  0  0  0  0
   -2.9898    2.9965    1.5304 H   0  0  0  0  0  0  0  0  0  0  0  0
   -3.2352   -0.6338    2.7138 H   0  0  0  0  0  0  0  0  0  0  0  0
   -4.4915    0.5642    3.0434 H   0  0  0  0  0  0  0  0  0  0  0  0
   -2.7992    0.9950    3.2642 H   0  0  0  0  0  0  0  0  0  0  0  0
  1  2  1  0
  2  3  1  0
  4  3  1  6
  4  5  1  0
  4  6  2  0
  4  7  1  0
  7  8  1  0
  8  9  1  0
  9 10  1  0
 10 11  1  0
 11 12  1  0
 11 13  1  0
 10 14  1  0
 14 15  1  0
 14 16  1  0
  1 17  1  0
  1 18  1  0
  1 19  1  0
  2 20  1  0
  2 21  1  0
  5 22  1  0
  5 23  1  0
  5 24  1  0
  8 25  1  0
  8 26  1  0
  9 27  1  0
  9 28  1  0
 10 29  1  6
 11 30  1  1
 12 31  1  0
 12 32  1  0
 12 33  1  0
 13 34  1  0
 13 35  1  0
 13 36  1  0
 14 37  1  6
 15 38  1  0
 15 39  1  0
 15 40  1  0
 16 41  1  0
 16 42  1  0
 16 43  1  0
M  CHG  1  10   1
M  END
$$$$
