VX
     RDKit          3D

 43 42  0  0  0  0  0  0  0  0999 V2000
    2.3396   -2.3409   -0.5527 C   0  0  0  0  0  0  0  0  0  0  0  0
    2.0322   -0.8583   -0.5341 C   0  0  0  0  0  0  0  0  0  0  0  0
    3.0320   -0.1953    0.2209 O   0  0  0  0  0  0  0  0  0  0  0  0
    2.8167    1.3660    0.5601 P   0  0  1  0  0  0  0  0  0  0  0  0
    4.0383    2.1023    1.6318 C   0  0  0  0  0  0  0  0  0  0  0  0
    1.6779    2.1971    0.0349 O   0  0  0  0  0  0  0  0  0  0  0  0
    1.5198    0.7783    2.4422 S   0  0  0  0  0  0  0  0  0  0  0  0
    0.3621    2.1695    2.6189 C   0  0  0  0  0  0  0  0  0  0  0  0
   -0.7886    2.0647    1.6099 C   0  0  0  0  0  0  0  0  0  0  0  0
   -1.9471    3.0389    1.8908 N   0  0  2  0  0  0  0  0  0  0  0  0
   -3.2200    2.7669    1.0363 C   0  0  1  0  0  0  0  0  0  0  0  0
   -3.4000    1.2932    0.6724 C   0  0  0  0  0  0  0  0  0  0  0  0
   -4.4477    3.2261    1.8336 C   0  0  0  0  0  0  0  0  0  0  0  0
   -1.5921    4.5445    1.8323 C   0  0  2  0  0  0  0  0  0  0  0  0
   -0.6281    4.8811    0.7005 C   0  0  0  0  0  0  0  0  0  0  0  0
   -1.1268    5.0374    3.1988 C   0  0  0  0  0  0  0  0  0  0  0  0
    3.3266   -2.5249   -0.9899 H   0  0  0  0  0  0  0  0  0  0  0  0
    2.3628   -2.7425    0.4658 H   0  0  0  0  0  0  0  0  0  0  0  0
    1.5898   -2.8879   -1.1309 H   0  0  0  0  0  0  0  0  0  0  0  0
    1.0511   -0.6820   -0.0819 H   0  0  0  0  0  0  0  0  0  0  0  0
    2.0299   -0.4605   -1.5537 H   0  0  0  0  0  0  0  0  0  0  0  0
    4.4303    1.3651    2.3382 H   0  0  0  0  0  0  0  0  0  0  0  0
    3.6023    2.9281    2.2011 H   0  0  0  0  0  0  0  0  0  0  0  0
    4.8740    2.4933    1.0448 H   0  0  0  0  0  0  0  0  0  0  0  0
    0.9373    3.0875    2.4934 H   0  0  0  0  0  0  0  0  0  0  0  0
   -0.0297    2.1457    3.6406 H   0  0  0  0  0  0  0  0  0  0  0  0
   -1.2103    1.0617    1.7169 H   0  0  0  0  0  0  0  0  0  0  0  0
   -0.4901    2.2120    0.5709 H   0  0  0  0  0  0  0  0  0  0  0  0
   -2.2343    2.8364    2.8575 H   0  0  0  0  0  0  0  0  0  0  0  0
   -3.1138    3.3511    0.1155 H   0  0  0  0  0  0  0  0  0  0  0  0
   -2.6103    0.9432    0.0000 H   0  0  0  0  0  0  0  0  0  0  0  0
   -4.3464    1.1465    0.1391 H   0  0  0  0  0  0  0  0  0  0  0  0
   -3.4235    0.6545    1.5619 H   0  0  0  0  0  0  0  0  0  0  0  0
   -5.3624    3.0642    1.2526 H   0  0  0  0  0  0  0  0  0  0  0  0
   -4.4150    4.2892    2.0854 H   0  0  0  0  0  0  0  0  0  0  0  0
   -4.5441    2.6646    2.7697 H   0  0  0  0  0  0  0  0  0  0  0  0
   -2.5266    5.0730    1.6209 H   0  0  0  0  0  0  0  0  0  0  0  0
   -0.9792    4.4828   -0.2567 H   0  0  0  0  0  0  0  0  0  0  0  0
   -0.5475    5.9685    0.5913 H   0  0  0  0  0  0  0  0  0  0  0  0
    0.3823    4.5073    0.8815 H   0  0  0  0  0  0  0  0  0  0  0  0
   -1.8381    4.7559    3.9825 H   0  0  0  0  0  0  0  0  0  0  0  0
   -0.1426    4.6603    3.4797 H   0  0  0  0  0  0  0  0  0  0  0  0
   -1.0586    6.1313    3.1969 H   0  0  0  0  0  0  0  0  0  0  0  0
  1  2  1  0
  2  3  1  0
  4  3  1  6
  4  5  1  0
  4  6  2  0
  4  7  1  0
  7  8  1  0
  8  9  1  0
  9 10  1  0
 10 11  1  0
 11 12  1  0
 11 13  1  0
 10 14  1  0
 14 15  1  0
 14 16  1  0
  1 17  1  0
  1 18  1  0
  1 19  1  0
  2 20  1  0
  2 21  1  0
  5 22  1  0
  5 23  1  0
  5 24  1  0
  8 25  1  0
  8 26  1  0
  9 27  1  0
  9 28  1  0
 10 29  1  1
 11 30  1  1
 12 31  1  0
 12 32  1  0
 12 33  1  0
 13 34  1  0
 13 35  1  0
 13 36  1  0
 14 37  1  6
 15 38  1  0
 15 39  1  0
 15 40  1  0
 16 41  1  0
 16 42  1  0
 16 43  1  0
M  CHG  1  10   1
M  END
$$$$
