VX
     RDKit          3D

 43 42  0  0  0  0  0  0  0  0999 V2000
    4.4160   -0.2923   -1.7737 C   0  0  0  0  0  0  0  0  0  0  0  0
    3.0713   -0.6046   -1.1514 C   0  0  0  0  0  0  0  0  0  0  0  0
    3.0157   -0.1980    0.2089 O   0  0  0  0  0  0  0  0  0  0  0  0
    2.8256    1.3668    0.5665 P   0  0  1  0  0  0  0  0  0  0  0  0
    4.0383    2.1167    1.6363 C   0  0  0  0  0  0  0  0  0  0  0  0
    1.6854    2.1845    0.0361 O   0  0  0  0  0  0  0  0  0  0  0  0
    1.5287    0.7791    2.4486 S   0  0  0  0  0  0  0  0  0  0  0  0
   -0.0930    0.4378    1.6861 C   0  0  0  0  0  0  0  0  0  0  0  0
   -1.1453    0.0961    2.7468 C   0  0  0  0  0  0  0  0  0  0  0  0
   -0.6306   -0.9338    3.7582 N   0  0  2  0  0  0  0  0  0  0  0  0
   -0.4691   -2.3452    3.1829 C   0  0  2  0  0  0  0  0  0  0  0  0
   -1.7831   -3.1126    3.1428 C   0  0  0  0  0  0  0  0  0  0  0  0
    0.6138   -3.0973    3.9559 C   0  0  0  0  0  0  0  0  0  0  0  0
   -1.2592   -0.8379    5.1549 C   0  0  2  0  0  0  0  0  0  0  0  0
   -2.7627   -0.5720    5.1097 C   0  0  0  0  0  0  0  0  0  0  0  0
   -0.5287    0.2438    5.9513 C   0  0  0  0  0  0  0  0  0  0  0  0
    4.4953   -0.7418   -2.7679 H   0  0  0  0  0  0  0  0  0  0  0  0
    5.2323   -0.6665   -1.1476 H   0  0  0  0  0  0  0  0  0  0  0  0
    4.5540    0.7875   -1.8795 H   0  0  0  0  0  0  0  0  0  0  0  0
    2.9067   -1.6867   -1.1688 H   0  0  0  0  0  0  0  0  0  0  0  0
    2.2556   -0.1443   -1.7176 H   0  0  0  0  0  0  0  0  0  0  0  0
    3.5859    2.9302    2.2110 H   0  0  0  0  0  0  0  0  0  0  0  0
    4.4384    1.3822    2.3410 H   0  0  0  0  0  0  0  0  0  0  0  0
    4.8725    2.5325    1.0673 H   0  0  0  0  0  0  0  0  0  0  0  0
    0.0249   -0.3795    0.9692 H   0  0  0  0  0  0  0  0  0  0  0  0
   -0.4199    1.3195    1.1262 H   0  0  0  0  0  0  0  0  0  0  0  0
   -2.0630   -0.2950    2.2981 H   0  0  0  0  0  0  0  0  0  0  0  0
   -1.3846    1.0075    3.3041 H   0  0  0  0  0  0  0  0  0  0  0  0
    0.3454   -0.6190    3.8926 H   0  0  0  0  0  0  0  0  0  0  0  0
   -0.1076   -2.2207    2.1577 H   0  0  0  0  0  0  0  0  0  0  0  0
   -1.6415   -4.0707    2.6301 H   0  0  0  0  0  0  0  0  0  0  0  0
   -2.1593   -3.3396    4.1450 H   0  0  0  0  0  0  0  0  0  0  0  0
   -2.5543   -2.5641    2.5940 H   0  0  0  0  0  0  0  0  0  0  0  0
    1.5469   -2.5249    3.9886 H   0  0  0  0  0  0  0  0  0  0  0  0
    0.3148   -3.3216    4.9839 H   0  0  0  0  0  0  0  0  0  0  0  0
    0.8315   -4.0528    3.4656 H   0  0  0  0  0  0  0  0  0  0  0  0
   -1.0826   -1.7957    5.6524 H   0  0  0  0  0  0  0  0  0  0  0  0
   -3.1841   -0.6577    6.1179 H   0  0  0  0  0  0  0  0  0  0  0  0
   -2.9963    0.4367    4.7550 H   0  0  0  0  0  0  0  0  0  0  0  0
   -3.2940   -1.2851    4.4758 H   0  0  0  0  0  0  0  0  0  0  0  0
   -0.9222    0.2976    6.9721 H   0  0  0  0  0  0  0  0  0  0  0  0
   -0.6423    1.2339    5.4985 H   0  0  0  0  0  0  0  0  0  0  0  0
    0.5418    0.0233    6.0225 H   0  0  0  0  0  0  0  0  0  0  0  0
  1  2  1  0
  2  3  1  0
  4  3  1  6
  4  5  1  0
  4  6  2  0
  4  7  1  0
  7  8  1  0
  8  9  1  0
  9 10  1  0
 10 11  1  0
 11 12  1  0
 11 13  1  0
 10 14  1  0
 14 15  1  0
 14 16  1  0
  1 17  1  0
  1 18  1  0
  1 19  1  0
  2 20  1  0
  2 21  1  0
  5 22  1  0
  5 23  1  0
  5 24  1  0
  8 25  1  0
  8 26  1  0
  9 27  1  0
  9 28  1  0
 10 29  1  1
 11 30  1  6
 12 31  1  0
 12 32  1  0
 12 33  1  0
 13 34  1  0
 13 35  1  0
 13 36  1  0
 14 37  1  1
 15 38  1  0
 15 39  1  0
 15 40  1  0
 16 41  1  0
 16 42  1  0
 16 43  1  0
M  CHG  1  10   1
M  END
$$$$
