VX
     RDKit          3D

 43 42  0  0  0  0  0  0  0  0999 V2000
    4.4307   -0.2998   -1.7633 C   0  0  0  0  0  0  0  0  0  0  0  0
    3.0809   -0.6075   -1.1498 C   0  0  0  0  0  0  0  0  0  0  0  0
    3.0145   -0.1980    0.2081 O   0  0  0  0  0  0  0  0  0  0  0  0
    2.8270    1.3663    0.5673 P   0  0  1  0  0  0  0  0  0  0  0  0
    4.0389    2.1177    1.6370 C   0  0  0  0  0  0  0  0  0  0  0  0
    1.6846    2.1841    0.0354 O   0  0  0  0  0  0  0  0  0  0  0  0
    1.5301    0.7786    2.4494 S   0  0  0  0  0  0  0  0  0  0  0  0
   -0.0682    0.3790    1.6933 C   0  0  0  0  0  0  0  0  0  0  0  0
   -1.1133    0.1216    2.7756 C   0  0  0  0  0  0  0  0  0  0  0  0
   -2.5398   -0.0429    2.2138 N   0  0  2  0  0  0  0  0  0  0  0  0
   -2.6783   -1.3889    1.4694 C   0  0  1  0  0  0  0  0  0  0  0  0
   -3.9313   -2.1230    1.9422 C   0  0  0  0  0  0  0  0  0  0  0  0
   -2.6078   -1.2533   -0.0476 C   0  0  0  0  0  0  0  0  0  0  0  0
   -3.1310    1.2204    1.5469 C   0  0  1  0  0  0  0  0  0  0  0  0
   -4.6506    1.0918    1.4243 C   0  0  0  0  0  0  0  0  0  0  0  0
   -2.8302    2.4707    2.3815 C   0  0  0  0  0  0  0  0  0  0  0  0
    5.2419   -0.6692   -1.1281 H   0  0  0  0  0  0  0  0  0  0  0  0
    4.5177   -0.7563   -2.7536 H   0  0  0  0  0  0  0  0  0  0  0  0
    4.5691    0.7791   -1.8765 H   0  0  0  0  0  0  0  0  0  0  0  0
    2.2705   -0.1473   -1.7237 H   0  0  0  0  0  0  0  0  0  0  0  0
    2.9143   -1.6893   -1.1660 H   0  0  0  0  0  0  0  0  0  0  0  0
    4.4463    1.3815    2.3357 H   0  0  0  0  0  0  0  0  0  0  0  0
    4.8685    2.5430    1.0682 H   0  0  0  0  0  0  0  0  0  0  0  0
    3.5833    2.9246    2.2184 H   0  0  0  0  0  0  0  0  0  0  0  0
    0.0710   -0.5038    1.0637 H   0  0  0  0  0  0  0  0  0  0  0  0
   -0.3628    1.2131    1.0523 H   0  0  0  0  0  0  0  0  0  0  0  0
   -0.8934   -0.7981    3.3318 H   0  0  0  0  0  0  0  0  0  0  0  0
   -1.1582    0.9250    3.5176 H   0  0  0  0  0  0  0  0  0  0  0  0
   -3.0996   -0.1534    3.0703 H   0  0  0  0  0  0  0  0  0  0  0  0
   -1.8257   -2.0006    1.7882 H   0  0  0  0  0  0  0  0  0  0  0  0
   -3.9570   -3.1333    1.5188 H   0  0  0  0  0  0  0  0  0  0  0  0
   -4.8551   -1.6248    1.6426 H   0  0  0  0  0  0  0  0  0  0  0  0
   -3.9385   -2.2257    3.0327 H   0  0  0  0  0  0  0  0  0  0  0  0
   -1.7266   -0.6922   -0.3694 H   0  0  0  0  0  0  0  0  0  0  0  0
   -2.5425   -2.2471   -0.5053 H   0  0  0  0  0  0  0  0  0  0  0  0
   -3.4920   -0.7711   -0.4709 H   0  0  0  0  0  0  0  0  0  0  0  0
   -2.6690    1.3224    0.5605 H   0  0  0  0  0  0  0  0  0  0  0  0
   -4.9464    0.3324    0.6991 H   0  0  0  0  0  0  0  0  0  0  0  0
   -5.1124    0.8498    2.3878 H   0  0  0  0  0  0  0  0  0  0  0  0
   -5.0897    2.0327    1.0733 H   0  0  0  0  0  0  0  0  0  0  0  0
   -3.3504    3.3432    1.9699 H   0  0  0  0  0  0  0  0  0  0  0  0
   -1.7652    2.7205    2.3750 H   0  0  0  0  0  0  0  0  0  0  0  0
   -3.1553    2.3486    3.4205 H   0  0  0  0  0  0  0  0  0  0  0  0
  1  2  1  0
  2  3  1  0
  4  3  1  6
  4  5  1  0
  4  6  2  0
  4  7  1  0
  7  8  1  0
  8  9  1  0
  9 10  1  0
 10 11  1  0
 11 12  1  0
 11 13  1  0
 10 14  1  0
 14 15  1  0
 14 16  1  0
  1 17  1  0
  1 18  1  0
  1 19  1  0
  2 20  1  0
  2 21  1  0
  5 22  1  0
  5 23  1  0
  5 24  1  0
  8 25  1  0
  8 26  1  0
  9 27  1  0
  9 28  1  0
 10 29  1  1
 11 30  1  6
 12 31  1  0
 12 32  1  0
 12 33  1  0
 13 34  1  0
 13 35  1  0
 13 36  1  0
 14 37  1  1
 15 38  1  0
 15 39  1  0
 15 40  1  0
 16 41  1  0
 16 42  1  0
 16 43  1  0
M  CHG  1  10   1
M  END
$$$$
