VX
     RDKit          3D

 43 42  0  0  0  0  0  0  0  0999 V2000
    2.6185   -1.0564   -2.0221 C   0  0  0  0  0  0  0  0  0  0  0  0
    3.6395   -0.5323   -1.0298 C   0  0  0  0  0  0  0  0  0  0  0  0
    2.9961   -0.2013    0.1943 O   0  0  0  0  0  0  0  0  0  0  0  0
    2.8379    1.3653    0.5745 P   0  0  1  0  0  0  0  0  0  0  0  0
    4.0427    2.1348    1.6450 C   0  0  0  0  0  0  0  0  0  0  0  0
    1.6882    2.1713    0.0339 O   0  0  0  0  0  0  0  0  0  0  0  0
    1.5410    0.7776    2.4566 S   0  0  0  0  0  0  0  0  0  0  0  0
   -0.1577    1.1847    1.9233 C   0  0  0  0  0  0  0  0  0  0  0  0
   -0.7135    0.1030    0.9863 C   0  0  0  0  0  0  0  0  0  0  0  0
   -0.6724   -1.2890    1.6395 N   0  0  2  0  0  0  0  0  0  0  0  0
   -0.6201   -2.4663    0.6548 C   0  0  2  0  0  0  0  0  0  0  0  0
    0.8374   -2.7426    0.2954 C   0  0  0  0  0  0  0  0  0  0  0  0
   -1.4736   -2.2422   -0.5936 C   0  0  0  0  0  0  0  0  0  0  0  0
   -1.6372   -1.4643    2.8219 C   0  0  2  0  0  0  0  0  0  0  0  0
   -1.1444   -2.5930    3.7295 C   0  0  0  0  0  0  0  0  0  0  0  0
   -3.0767   -1.6810    2.3678 C   0  0  0  0  0  0  0  0  0  0  0  0
    2.1334   -1.9609   -1.6437 H   0  0  0  0  0  0  0  0  0  0  0  0
    3.0979   -1.2902   -2.9776 H   0  0  0  0  0  0  0  0  0  0  0  0
    1.8287   -0.3187   -2.1957 H   0  0  0  0  0  0  0  0  0  0  0  0
    4.1546    0.3381   -1.4501 H   0  0  0  0  0  0  0  0  0  0  0  0
    4.3925   -1.2966   -0.8177 H   0  0  0  0  0  0  0  0  0  0  0  0
    3.5836    2.9463    2.2200 H   0  0  0  0  0  0  0  0  0  0  0  0
    4.4485    1.4030    2.3508 H   0  0  0  0  0  0  0  0  0  0  0  0
    4.8759    2.5559    1.0730 H   0  0  0  0  0  0  0  0  0  0  0  0
   -0.7815    1.2983    2.8143 H   0  0  0  0  0  0  0  0  0  0  0  0
   -0.1641    2.1584    1.4255 H   0  0  0  0  0  0  0  0  0  0  0  0
   -1.7511    0.3063    0.7019 H   0  0  0  0  0  0  0  0  0  0  0  0
   -0.1017    0.0546    0.0797 H   0  0  0  0  0  0  0  0  0  0  0  0
    0.2568   -1.2849    2.0925 H   0  0  0  0  0  0  0  0  0  0  0  0
   -1.0000   -3.3458    1.1809 H   0  0  0  0  0  0  0  0  0  0  0  0
    0.9132   -3.6453   -0.3244 H   0  0  0  0  0  0  0  0  0  0  0  0
    1.2701   -1.9152   -0.2723 H   0  0  0  0  0  0  0  0  0  0  0  0
    1.4441   -2.9067    1.1934 H   0  0  0  0  0  0  0  0  0  0  0  0
   -1.0601   -1.4616   -1.2449 H   0  0  0  0  0  0  0  0  0  0  0  0
   -2.5071   -1.9788   -0.3478 H   0  0  0  0  0  0  0  0  0  0  0  0
   -1.5051   -3.1701   -1.1826 H   0  0  0  0  0  0  0  0  0  0  0  0
   -1.5847   -0.5398    3.4073 H   0  0  0  0  0  0  0  0  0  0  0  0
   -1.7028   -2.5878    4.6716 H   0  0  0  0  0  0  0  0  0  0  0  0
   -1.2876   -3.5810    3.2774 H   0  0  0  0  0  0  0  0  0  0  0  0
   -0.0790   -2.4796    3.9733 H   0  0  0  0  0  0  0  0  0  0  0  0
   -3.4379   -0.8443    1.7567 H   0  0  0  0  0  0  0  0  0  0  0  0
   -3.1984   -2.6047    1.7934 H   0  0  0  0  0  0  0  0  0  0  0  0
   -3.7351   -1.7587    3.2384 H   0  0  0  0  0  0  0  0  0  0  0  0
  1  2  1  0
  2  3  1  0
  4  3  1  6
  4  5  1  0
  4  6  2  0
  4  7  1  0
  7  8  1  0
  8  9  1  0
  9 10  1  0
 10 11  1  0
 11 12  1  0
 11 13  1  0
 10 14  1  0
 14 15  1  0
 14 16  1  0
  1 17  1  0
  1 18  1  0
  1 19  1  0
  2 20  1  0
  2 21  1  0
  5 22  1  0
  5 23  1  0
  5 24  1  0
  8 25  1  0
  8 26  1  0
  9 27  1  0
  9 28  1  0
 10 29  1  1
 11 30  1  1
 12 31  1  0
 12 32  1  0
 12 33  1  0
 13 34  1  0
 13 35  1  0
 13 36  1  0
 14 37  1  1
 15 38  1  0
 15 39  1  0
 15 40  1  0
 16 41  1  0
 16 42  1  0
 16 43  1  0
M  CHG  1  10   1
M  END
$$$$
