VX
     RDKit          3D

 43 42  0  0  0  0  0  0  0  0999 V2000
    3.7802   -1.9547   -1.2327 C   0  0  0  0  0  0  0  0  0  0  0  0
    3.2479   -0.5331   -1.1582 C   0  0  0  0  0  0  0  0  0  0  0  0
    3.0133   -0.2012    0.2062 O   0  0  0  0  0  0  0  0  0  0  0  0
    2.8283    1.3669    0.5684 P   0  0  1  0  0  0  0  0  0  0  0  0
    4.0393    2.1199    1.6380 C   0  0  0  0  0  0  0  0  0  0  0  0
    1.6841    2.1844    0.0352 O   0  0  0  0  0  0  0  0  0  0  0  0
    1.5314    0.7793    2.4505 S   0  0  0  0  0  0  0  0  0  0  0  0
   -0.1529    0.8638    1.7661 C   0  0  0  0  0  0  0  0  0  0  0  0
   -1.1658    0.2834    2.7482 C   0  0  0  0  0  0  0  0  0  0  0  0
   -2.6285    0.5654    2.3456 N   0  0  1  0  0  0  0  0  0  0  0  0
   -3.0523    2.0513    2.4064 C   0  0  2  0  0  0  0  0  0  0  0  0
   -2.5061    2.7266    3.6723 C   0  0  0  0  0  0  0  0  0  0  0  0
   -4.5788    2.1620    2.4274 C   0  0  0  0  0  0  0  0  0  0  0  0
   -3.0094   -0.2436    1.0858 C   0  0  1  0  0  0  0  0  0  0  0  0
   -4.3448   -0.9571    1.2982 C   0  0  0  0  0  0  0  0  0  0  0  0
   -2.9788    0.5850   -0.1951 C   0  0  0  0  0  0  0  0  0  0  0  0
    3.8969   -2.2811   -2.2815 H   0  0  0  0  0  0  0  0  0  0  0  0
    3.0927   -2.6514   -0.7193 H   0  0  0  0  0  0  0  0  0  0  0  0
    4.7625   -2.0244   -0.7333 H   0  0  0  0  0  0  0  0  0  0  0  0
    3.9821    0.1552   -1.5930 H   0  0  0  0  0  0  0  0  0  0  0  0
    2.2996   -0.4453   -1.7052 H   0  0  0  0  0  0  0  0  0  0  0  0
    3.5848    2.9355    2.2094 H   0  0  0  0  0  0  0  0  0  0  0  0
    4.8768    2.5314    1.0599 H   0  0  0  0  0  0  0  0  0  0  0  0
    4.4364    1.3854    2.3469 H   0  0  0  0  0  0  0  0  0  0  0  0
   -0.1700    0.2996    0.8259 H   0  0  0  0  0  0  0  0  0  0  0  0
   -0.3712    1.9141    1.5413 H   0  0  0  0  0  0  0  0  0  0  0  0
   -1.0719   -0.8086    2.8160 H   0  0  0  0  0  0  0  0  0  0  0  0
   -1.0371    0.6642    3.7655 H   0  0  0  0  0  0  0  0  0  0  0  0
   -3.1542    0.1254    3.1154 H   0  0  0  0  0  0  0  0  0  0  0  0
   -2.6380    2.5524    1.5248 H   0  0  0  0  0  0  0  0  0  0  0  0
   -1.4195    2.8222    3.6379 H   0  0  0  0  0  0  0  0  0  0  0  0
   -2.7855    2.1739    4.5774 H   0  0  0  0  0  0  0  0  0  0  0  0
   -2.9008    3.7445    3.7691 H   0  0  0  0  0  0  0  0  0  0  0  0
   -4.8930    3.1896    2.6393 H   0  0  0  0  0  0  0  0  0  0  0  0
   -5.0148    1.5163    3.1958 H   0  0  0  0  0  0  0  0  0  0  0  0
   -5.0241    1.9055    1.4657 H   0  0  0  0  0  0  0  0  0  0  0  0
   -2.2526   -1.0331    0.9901 H   0  0  0  0  0  0  0  0  0  0  0  0
   -4.5329   -1.6513    0.4714 H   0  0  0  0  0  0  0  0  0  0  0  0
   -5.1886   -0.2669    1.3400 H   0  0  0  0  0  0  0  0  0  0  0  0
   -4.3413   -1.5485    2.2205 H   0  0  0  0  0  0  0  0  0  0  0  0
   -3.0789   -0.0774   -1.0639 H   0  0  0  0  0  0  0  0  0  0  0  0
   -3.7978    1.3072   -0.2543 H   0  0  0  0  0  0  0  0  0  0  0  0
   -2.0343    1.1242   -0.3184 H   0  0  0  0  0  0  0  0  0  0  0  0
  1  2  1  0
  2  3  1  0
  4  3  1  6
  4  5  1  0
  4  6  2  0
  4  7  1  0
  7  8  1  0
  8  9  1  0
  9 10  1  0
 10 11  1  0
 11 12  1  0
 11 13  1  0
 10 14  1  0
 14 15  1  0
 14 16  1  0
  1 17  1  0
  1 18  1  0
  1 19  1  0
  2 20  1  0
  2 21  1  0
  5 22  1  0
  5 23  1  0
  5 24  1  0
  8 25  1  0
  8 26  1  0
  9 27  1  0
  9 28  1  0
 10 29  1  6
 11 30  1  6
 12 31  1  0
 12 32  1  0
 12 33  1  0
 13 34  1  0
 13 35  1  0
 13 36  1  0
 14 37  1  1
 15 38  1  0
 15 39  1  0
 15 40  1  0
 16 41  1  0
 16 42  1  0
 16 43  1  0
M  CHG  1  10   1
M  END
$$$$
