VX
     RDKit          3D

 43 42  0  0  0  0  0  0  0  0999 V2000
    3.4160   -2.0012   -1.3028 C   0  0  0  0  0  0  0  0  0  0  0  0
    3.6657   -0.5362   -1.0087 C   0  0  0  0  0  0  0  0  0  0  0  0
    3.0055   -0.1963    0.2023 O   0  0  0  0  0  0  0  0  0  0  0  0
    2.8328    1.3646    0.5708 P   0  0  1  0  0  0  0  0  0  0  0  0
    4.0407    2.1247    1.6404 C   0  0  0  0  0  0  0  0  0  0  0  0
    1.6859    2.1771    0.0342 O   0  0  0  0  0  0  0  0  0  0  0  0
    1.5359    0.7769    2.4529 S   0  0  0  0  0  0  0  0  0  0  0  0
    0.6799    2.3190    2.9043 C   0  0  0  0  0  0  0  0  0  0  0  0
   -0.8446    2.1356    2.8791 C   0  0  0  0  0  0  0  0  0  0  0  0
   -1.3485    1.5455    1.5597 N   0  0  1  0  0  0  0  0  0  0  0  0
   -2.5891    0.6524    1.6826 C   0  0  1  0  0  0  0  0  0  0  0  0
   -2.1494   -0.7476    2.1118 C   0  0  0  0  0  0  0  0  0  0  0  0
   -3.6377    1.2186    2.6396 C   0  0  0  0  0  0  0  0  0  0  0  0
   -1.3469    2.5405    0.3892 C   0  0  2  0  0  0  0  0  0  0  0  0
   -2.5484    3.4761    0.4183 C   0  0  0  0  0  0  0  0  0  0  0  0
   -1.2559    1.7820   -0.9360 C   0  0  0  0  0  0  0  0  0  0  0  0
    3.9162   -2.3051   -2.2274 H   0  0  0  0  0  0  0  0  0  0  0  0
    3.7799   -2.6276   -0.4821 H   0  0  0  0  0  0  0  0  0  0  0  0
    2.3430   -2.1970   -1.4030 H   0  0  0  0  0  0  0  0  0  0  0  0
    3.2837    0.0803   -1.8282 H   0  0  0  0  0  0  0  0  0  0  0  0
    4.7380   -0.3522   -0.8948 H   0  0  0  0  0  0  0  0  0  0  0  0
    4.4596    1.3876    2.3327 H   0  0  0  0  0  0  0  0  0  0  0  0
    4.8610    2.5566    1.0627 H   0  0  0  0  0  0  0  0  0  0  0  0
    3.5847    2.9278    2.2252 H   0  0  0  0  0  0  0  0  0  0  0  0
    0.9939    2.5997    3.9152 H   0  0  0  0  0  0  0  0  0  0  0  0
    0.9888    3.1276    2.2391 H   0  0  0  0  0  0  0  0  0  0  0  0
   -1.1193    1.4385    3.6788 H   0  0  0  0  0  0  0  0  0  0  0  0
   -1.3665    3.0820    3.0494 H   0  0  0  0  0  0  0  0  0  0  0  0
   -0.5886    0.8933    1.3064 H   0  0  0  0  0  0  0  0  0  0  0  0
   -3.0276    0.5718    0.6849 H   0  0  0  0  0  0  0  0  0  0  0  0
   -1.6934   -0.7493    3.1070 H   0  0  0  0  0  0  0  0  0  0  0  0
   -1.4255   -1.1679    1.4064 H   0  0  0  0  0  0  0  0  0  0  0  0
   -3.0107   -1.4239    2.1397 H   0  0  0  0  0  0  0  0  0  0  0  0
   -4.5575    0.6240    2.5760 H   0  0  0  0  0  0  0  0  0  0  0  0
   -3.3120    1.1824    3.6844 H   0  0  0  0  0  0  0  0  0  0  0  0
   -3.9032    2.2510    2.4063 H   0  0  0  0  0  0  0  0  0  0  0  0
   -0.4417    3.1428    0.5030 H   0  0  0  0  0  0  0  0  0  0  0  0
   -2.4433    4.2414   -0.3572 H   0  0  0  0  0  0  0  0  0  0  0  0
   -3.4854    2.9483    0.2196 H   0  0  0  0  0  0  0  0  0  0  0  0
   -2.6373    3.9975    1.3752 H   0  0  0  0  0  0  0  0  0  0  0  0
   -2.1942    1.2820   -1.1943 H   0  0  0  0  0  0  0  0  0  0  0  0
   -1.0280    2.4788   -1.7500 H   0  0  0  0  0  0  0  0  0  0  0  0
   -0.4652    1.0246   -0.9169 H   0  0  0  0  0  0  0  0  0  0  0  0
  1  2  1  0
  2  3  1  0
  4  3  1  6
  4  5  1  0
  4  6  2  0
  4  7  1  0
  7  8  1  0
  8  9  1  0
  9 10  1  0
 10 11  1  0
 11 12  1  0
 11 13  1  0
 10 14  1  0
 14 15  1  0
 14 16  1  0
  1 17  1  0
  1 18  1  0
  1 19  1  0
  2 20  1  0
  2 21  1  0
  5 22  1  0
  5 23  1  0
  5 24  1  0
  8 25  1  0
  8 26  1  0
  9 27  1  0
  9 28  1  0
 10 29  1  1
 11 30  1  1
 12 31  1  0
 12 32  1  0
 12 33  1  0
 13 34  1  0
 13 35  1  0
 13 36  1  0
 14 37  1  1
 15 38  1  0
 15 39  1  0
 15 40  1  0
 16 41  1  0
 16 42  1  0
 16 43  1  0
M  CHG  1  10   1
M  END
$$$$
