VX
     RDKit          3D

 43 42  0  0  0  0  0  0  0  0999 V2000
    4.9378   -1.3299   -0.6131 C   0  0  0  0  0  0  0  0  0  0  0  0
    3.7081   -0.5367   -0.9995 C   0  0  0  0  0  0  0  0  0  0  0  0
    2.9784   -0.2046    0.1811 O   0  0  0  0  0  0  0  0  0  0  0  0
    2.8482    1.3652    0.5816 P   0  0  1  0  0  0  0  0  0  0  0  0
    4.0445    2.1510    1.6513 C   0  0  0  0  0  0  0  0  0  0  0  0
    1.6938    2.1585    0.0338 O   0  0  0  0  0  0  0  0  0  0  0  0
    1.5513    0.7776    2.4637 S   0  0  0  0  0  0  0  0  0  0  0  0
    1.2688   -1.0087    2.3643 C   0  0  0  0  0  0  0  0  0  0  0  0
   -0.0616   -1.3636    1.6894 C   0  0  0  0  0  0  0  0  0  0  0  0
   -0.0577   -1.0949    0.1654 N   0  0  1  0  0  0  0  0  0  0  0  0
    0.0170   -2.4029   -0.6291 C   0  0  2  0  0  0  0  0  0  0  0  0
    0.4204   -2.1941   -2.0820 C   0  0  0  0  0  0  0  0  0  0  0  0
   -1.2430   -3.2641   -0.5349 C   0  0  0  0  0  0  0  0  0  0  0  0
   -1.0393    0.0306   -0.2003 C   0  0  1  0  0  0  0  0  0  0  0  0
   -0.7061    0.6860   -1.5383 C   0  0  0  0  0  0  0  0  0  0  0  0
   -2.5014   -0.4012   -0.1308 C   0  0  0  0  0  0  0  0  0  0  0  0
    5.4285   -1.7350   -1.5058 H   0  0  0  0  0  0  0  0  0  0  0  0
    4.6727   -2.1487    0.0671 H   0  0  0  0  0  0  0  0  0  0  0  0
    5.6598   -0.6936   -0.0759 H   0  0  0  0  0  0  0  0  0  0  0  0
    3.0589   -1.1495   -1.6329 H   0  0  0  0  0  0  0  0  0  0  0  0
    3.9851    0.3521   -1.5703 H   0  0  0  0  0  0  0  0  0  0  0  0
    4.9043    2.5158    1.0834 H   0  0  0  0  0  0  0  0  0  0  0  0
    3.6006    3.0084    2.1608 H   0  0  0  0  0  0  0  0  0  0  0  0
    4.4036    1.4513    2.4195 H   0  0  0  0  0  0  0  0  0  0  0  0
    1.2439   -1.3785    3.3937 H   0  0  0  0  0  0  0  0  0  0  0  0
    2.1096   -1.5089    1.8728 H   0  0  0  0  0  0  0  0  0  0  0  0
   -0.9011   -0.8196    2.1388 H   0  0  0  0  0  0  0  0  0  0  0  0
   -0.2469   -2.4319    1.8413 H   0  0  0  0  0  0  0  0  0  0  0  0
    0.8587   -0.6591   -0.0185 H   0  0  0  0  0  0  0  0  0  0  0  0
    0.8395   -2.9519   -0.1517 H   0  0  0  0  0  0  0  0  0  0  0  0
    0.6930   -3.1616   -2.5242 H   0  0  0  0  0  0  0  0  0  0  0  0
    1.2910   -1.5425   -2.1871 H   0  0  0  0  0  0  0  0  0  0  0  0
   -0.4030   -1.8037   -2.6883 H   0  0  0  0  0  0  0  0  0  0  0  0
   -1.0030   -4.2843   -0.8546 H   0  0  0  0  0  0  0  0  0  0  0  0
   -2.0339   -2.9193   -1.2028 H   0  0  0  0  0  0  0  0  0  0  0  0
   -1.6476   -3.3326    0.4781 H   0  0  0  0  0  0  0  0  0  0  0  0
   -0.8702    0.7968    0.5641 H   0  0  0  0  0  0  0  0  0  0  0  0
   -1.0979    0.1246   -2.3896 H   0  0  0  0  0  0  0  0  0  0  0  0
    0.3718    0.8323   -1.6789 H   0  0  0  0  0  0  0  0  0  0  0  0
   -1.1755    1.6740   -1.5866 H   0  0  0  0  0  0  0  0  0  0  0  0
   -2.7181   -1.0124    0.7506 H   0  0  0  0  0  0  0  0  0  0  0  0
   -2.8089   -0.9470   -1.0282 H   0  0  0  0  0  0  0  0  0  0  0  0
   -3.1462    0.4798   -0.0694 H   0  0  0  0  0  0  0  0  0  0  0  0
  1  2  1  0
  2  3  1  0
  4  3  1  6
  4  5  1  0
  4  6  2  0
  4  7  1  0
  7  8  1  0
  8  9  1  0
  9 10  1  0
 10 11  1  0
 11 12  1  0
 11 13  1  0
 10 14  1  0
 14 15  1  0
 14 16  1  0
  1 17  1  0
  1 18  1  0
  1 19  1  0
  2 20  1  0
  2 21  1  0
  5 22  1  0
  5 23  1  0
  5 24  1  0
  8 25  1  0
  8 26  1  0
  9 27  1  0
  9 28  1  0
 10 29  1  6
 11 30  1  1
 12 31  1  0
 12 32  1  0
 12 33  1  0
 13 34  1  0
 13 35  1  0
 13 36  1  0
 14 37  1  6
 15 38  1  0
 15 39  1  0
 15 40  1  0
 16 41  1  0
 16 42  1  0
 16 43  1  0
M  CHG  1  10   1
M  END
$$$$
