VX
     RDKit          3D

 43 42  0  0  0  0  0  0  0  0999 V2000
    3.6242   -1.4608    2.1686 C   0  0  0  0  0  0  0  0  0  0  0  0
    3.9666   -1.0545    0.7505 C   0  0  0  0  0  0  0  0  0  0  0  0
    2.9888   -0.1965    0.1908 O   0  0  0  0  0  0  0  0  0  0  0  0
    2.8432    1.3638    0.5776 P   0  0  1  0  0  0  0  0  0  0  0  0
    4.0416    2.1385    1.6454 C   0  0  0  0  0  0  0  0  0  0  0  0
    1.6914    2.1643    0.0340 O   0  0  0  0  0  0  0  0  0  0  0  0
    1.5463    0.7761    2.4597 S   0  0  0  0  0  0  0  0  0  0  0  0
   -0.1000    0.6018    1.7151 C   0  0  0  0  0  0  0  0  0  0  0  0
   -1.1316    0.1861    2.7644 C   0  0  0  0  0  0  0  0  0  0  0  0
   -2.5089   -0.0746    2.1349 N   0  0  2  0  0  0  0  0  0  0  0  0
   -3.2155    1.1981    1.6356 C   0  0  1  0  0  0  0  0  0  0  0  0
   -4.1932    0.8372    0.5169 C   0  0  0  0  0  0  0  0  0  0  0  0
   -3.8895    1.9756    2.7573 C   0  0  0  0  0  0  0  0  0  0  0  0
   -3.3910   -1.0568    2.9290 C   0  0  1  0  0  0  0  0  0  0  0  0
   -3.0115   -2.4837    2.5306 C   0  0  0  0  0  0  0  0  0  0  0  0
   -3.2921   -0.8606    4.4409 C   0  0  0  0  0  0  0  0  0  0  0  0
    3.7217   -0.6131    2.8522 H   0  0  0  0  0  0  0  0  0  0  0  0
    2.5925   -1.8205    2.2343 H   0  0  0  0  0  0  0  0  0  0  0  0
    4.2978   -2.2498    2.5159 H   0  0  0  0  0  0  0  0  0  0  0  0
    3.9968   -1.9508    0.1223 H   0  0  0  0  0  0  0  0  0  0  0  0
    4.9587   -0.5989    0.6957 H   0  0  0  0  0  0  0  0  0  0  0  0
    3.5912    2.9940    2.1575 H   0  0  0  0  0  0  0  0  0  0  0  0
    4.8953    2.5020    1.0666 H   0  0  0  0  0  0  0  0  0  0  0  0
    4.4061    1.4480    2.4108 H   0  0  0  0  0  0  0  0  0  0  0  0
   -0.0422   -0.1451    0.9168 H   0  0  0  0  0  0  0  0  0  0  0  0
   -0.3629    1.5614    1.2656 H   0  0  0  0  0  0  0  0  0  0  0  0
   -0.8130   -0.7560    3.2214 H   0  0  0  0  0  0  0  0  0  0  0  0
   -1.2632    0.9432    3.5434 H   0  0  0  0  0  0  0  0  0  0  0  0
   -2.2912   -0.5807    1.2660 H   0  0  0  0  0  0  0  0  0  0  0  0
   -2.4401    1.8280    1.1917 H   0  0  0  0  0  0  0  0  0  0  0  0
   -4.5953    1.7481    0.0600 H   0  0  0  0  0  0  0  0  0  0  0  0
   -5.0447    0.2527    0.8772 H   0  0  0  0  0  0  0  0  0  0  0  0
   -3.6955    0.2651   -0.2734 H   0  0  0  0  0  0  0  0  0  0  0  0
   -3.1858    2.2258    3.5563 H   0  0  0  0  0  0  0  0  0  0  0  0
   -4.2869    2.9207    2.3704 H   0  0  0  0  0  0  0  0  0  0  0  0
   -4.7333    1.4292    3.1896 H   0  0  0  0  0  0  0  0  0  0  0  0
   -4.4242   -0.8856    2.6145 H   0  0  0  0  0  0  0  0  0  0  0  0
   -3.6577   -3.2070    3.0397 H   0  0  0  0  0  0  0  0  0  0  0  0
   -1.9754   -2.7205    2.7923 H   0  0  0  0  0  0  0  0  0  0  0  0
   -3.1327   -2.6356    1.4526 H   0  0  0  0  0  0  0  0  0  0  0  0
   -4.0426   -1.4811    4.9438 H   0  0  0  0  0  0  0  0  0  0  0  0
   -3.4741    0.1731    4.7418 H   0  0  0  0  0  0  0  0  0  0  0  0
   -2.3173   -1.1627    4.8367 H   0  0  0  0  0  0  0  0  0  0  0  0
  1  2  1  0
  2  3  1  0
  4  3  1  6
  4  5  1  0
  4  6  2  0
  4  7  1  0
  7  8  1  0
  8  9  1  0
  9 10  1  0
 10 11  1  0
 11 12  1  0
 11 13  1  0
 10 14  1  0
 14 15  1  0
 14 16  1  0
  1 17  1  0
  1 18  1  0
  1 19  1  0
  2 20  1  0
  2 21  1  0
  5 22  1  0
  5 23  1  0
  5 24  1  0
  8 25  1  0
  8 26  1  0
  9 27  1  0
  9 28  1  0
 10 29  1  6
 11 30  1  1
 12 31  1  0
 12 32  1  0
 12 33  1  0
 13 34  1  0
 13 35  1  0
 13 36  1  0
 14 37  1  1
 15 38  1  0
 15 39  1  0
 15 40  1  0
 16 41  1  0
 16 42  1  0
 16 43  1  0
M  CHG  1  10   1
M  END
$$$$
