VX
     RDKit          3D

 43 42  0  0  0  0  0  0  0  0999 V2000
    2.2338   -2.3735   -1.1699 C   0  0  0  0  0  0  0  0  0  0  0  0
    2.6730   -1.8369    0.1767 C   0  0  0  0  0  0  0  0  0  0  0  0
    2.5361   -0.4253    0.1672 O   0  0  0  0  0  0  0  0  0  0  0  0
    2.4670    0.3946    1.5564 P   0  0  1  0  0  0  0  0  0  0  0  0
    3.1325   -0.3246    3.0449 C   0  0  0  0  0  0  0  0  0  0  0  0
    1.8424    1.7630    1.5961 O   0  0  0  0  0  0  0  0  0  0  0  0
    0.3681   -0.5770    2.0254 S   0  0  0  0  0  0  0  0  0  0  0  0
   -0.7440    0.3634    0.9412 C   0  0  0  0  0  0  0  0  0  0  0  0
   -1.1504    1.7013    1.5762 C   0  0  0  0  0  0  0  0  0  0  0  0
   -1.9312    2.5656    0.5728 N   0  0  1  0  0  0  0  0  0  0  0  0
   -3.4385    2.6998    0.8258 C   0  0  2  0  0  0  0  0  0  0  0  0
   -3.7599    3.4899    2.0872 C   0  0  0  0  0  0  0  0  0  0  0  0
   -4.0914    1.3182    0.8355 C   0  0  0  0  0  0  0  0  0  0  0  0
   -1.2478    3.8873    0.1662 C   0  0  2  0  0  0  0  0  0  0  0  0
   -0.1794    3.5857   -0.8843 C   0  0  0  0  0  0  0  0  0  0  0  0
   -0.6660    4.6691    1.3417 C   0  0  0  0  0  0  0  0  0  0  0  0
    2.8332   -1.9352   -1.9746 H   0  0  0  0  0  0  0  0  0  0  0  0
    1.1904   -2.1068   -1.3686 H   0  0  0  0  0  0  0  0  0  0  0  0
    2.3334   -3.4618   -1.2080 H   0  0  0  0  0  0  0  0  0  0  0  0
    2.0622   -2.2750    0.9713 H   0  0  0  0  0  0  0  0  0  0  0  0
    3.7221   -2.0898    0.3569 H   0  0  0  0  0  0  0  0  0  0  0  0
    4.2019   -0.1112    3.1274 H   0  0  0  0  0  0  0  0  0  0  0  0
    2.6327    0.0929    3.9237 H   0  0  0  0  0  0  0  0  0  0  0  0
    2.9943   -1.4090    3.0629 H   0  0  0  0  0  0  0  0  0  0  0  0
   -0.2396    0.5203   -0.0175 H   0  0  0  0  0  0  0  0  0  0  0  0
   -1.6294   -0.2500    0.7508 H   0  0  0  0  0  0  0  0  0  0  0  0
   -0.2841    2.2674    1.9063 H   0  0  0  0  0  0  0  0  0  0  0  0
   -1.7842    1.5387    2.4524 H   0  0  0  0  0  0  0  0  0  0  0  0
   -1.9127    2.0322   -0.3050 H   0  0  0  0  0  0  0  0  0  0  0  0
   -3.8340    3.2396   -0.0434 H   0  0  0  0  0  0  0  0  0  0  0  0
   -3.2596    3.0931    2.9745 H   0  0  0  0  0  0  0  0  0  0  0  0
   -3.4864    4.5426    1.9739 H   0  0  0  0  0  0  0  0  0  0  0  0
   -4.8381    3.4701    2.2825 H   0  0  0  0  0  0  0  0  0  0  0  0
   -5.1823    1.4163    0.8595 H   0  0  0  0  0  0  0  0  0  0  0  0
   -3.8000    0.7280    1.7096 H   0  0  0  0  0  0  0  0  0  0  0  0
   -3.8337    0.7525   -0.0661 H   0  0  0  0  0  0  0  0  0  0  0  0
   -2.0276    4.4916   -0.3117 H   0  0  0  0  0  0  0  0  0  0  0  0
    0.6120    2.9437   -0.4873 H   0  0  0  0  0  0  0  0  0  0  0  0
   -0.6145    3.0866   -1.7567 H   0  0  0  0  0  0  0  0  0  0  0  0
    0.2861    4.5137   -1.2337 H   0  0  0  0  0  0  0  0  0  0  0  0
   -1.3228    4.6866    2.2129 H   0  0  0  0  0  0  0  0  0  0  0  0
   -0.4938    5.7087    1.0398 H   0  0  0  0  0  0  0  0  0  0  0  0
    0.3061    4.2782    1.6592 H   0  0  0  0  0  0  0  0  0  0  0  0
  1  2  1  0
  2  3  1  0
  4  3  1  6
  4  5  1  0
  4  6  2  0
  4  7  1  0
  7  8  1  0
  8  9  1  0
  9 10  1  0
 10 11  1  0
 11 12  1  0
 11 13  1  0
 10 14  1  0
 14 15  1  0
 14 16  1  0
  1 17  1  0
  1 18  1  0
  1 19  1  0
  2 20  1  0
  2 21  1  0
  5 22  1  0
  5 23  1  0
  5 24  1  0
  8 25  1  0
  8 26  1  0
  9 27  1  0
  9 28  1  0
 10 29  1  6
 11 30  1  6
 12 31  1  0
 12 32  1  0
 12 33  1  0
 13 34  1  0
 13 35  1  0
 13 36  1  0
 14 37  1  1
 15 38  1  0
 15 39  1  0
 15 40  1  0
 16 41  1  0
 16 42  1  0
 16 43  1  0
M  CHG  1  10   1
M  END
$$$$
