VX
     RDKit          3D

 43 42  0  0  0  0  0  0  0  0999 V2000
    4.8356    1.5653    0.4696 C   0  0  0  0  0  0  0  0  0  0  0  0
    3.4032    1.4197    0.9405 C   0  0  0  0  0  0  0  0  0  0  0  0
    2.9988    0.0602    0.9868 O   0  0  0  0  0  0  0  0  0  0  0  0
    2.6841   -0.7310   -0.3857 P   0  0  2  0  0  0  0  0  0  0  0  0
    3.5470   -2.2643   -0.6730 C   0  0  0  0  0  0  0  0  0  0  0  0
    1.7042   -0.2182   -1.4032 O   0  0  0  0  0  0  0  0  0  0  0  0
    0.9474   -1.9105    0.6924 S   0  0  0  0  0  0  0  0  0  0  0  0
   -0.4646   -0.8062    0.4370 C   0  0  0  0  0  0  0  0  0  0  0  0
   -1.6991   -1.3257    1.1718 C   0  0  0  0  0  0  0  0  0  0  0  0
   -2.9043   -0.3904    0.9216 N   0  0  2  0  0  0  0  0  0  0  0  0
   -3.2792    0.4268    2.1792 C   0  0  1  0  0  0  0  0  0  0  0  0
   -2.0987    1.3172    2.5832 C   0  0  0  0  0  0  0  0  0  0  0  0
   -4.4929    1.3197    1.9170 C   0  0  0  0  0  0  0  0  0  0  0  0
   -4.0817   -1.0926    0.2211 C   0  0  1  0  0  0  0  0  0  0  0  0
   -3.6456   -1.6165   -1.1483 C   0  0  0  0  0  0  0  0  0  0  0  0
   -4.6954   -2.1802    1.0970 C   0  0  0  0  0  0  0  0  0  0  0  0
    4.9299    1.2842   -0.5832 H   0  0  0  0  0  0  0  0  0  0  0  0
    5.1730    2.6005    0.5755 H   0  0  0  0  0  0  0  0  0  0  0  0
    5.5023    0.9126    1.0422 H   0  0  0  0  0  0  0  0  0  0  0  0
    3.3159    1.8138    1.9583 H   0  0  0  0  0  0  0  0  0  0  0  0
    2.7173    1.9962    0.3112 H   0  0  0  0  0  0  0  0  0  0  0  0
    4.4882   -2.1019   -1.2036 H   0  0  0  0  0  0  0  0  0  0  0  0
    2.9321   -2.9374   -1.2781 H   0  0  0  0  0  0  0  0  0  0  0  0
    3.7710   -2.7636    0.2733 H   0  0  0  0  0  0  0  0  0  0  0  0
   -0.6653   -0.7422   -0.6371 H   0  0  0  0  0  0  0  0  0  0  0  0
   -0.1906    0.1938    0.7850 H   0  0  0  0  0  0  0  0  0  0  0  0
   -1.9588   -2.3275    0.8209 H   0  0  0  0  0  0  0  0  0  0  0  0
   -1.5450   -1.3941    2.2539 H   0  0  0  0  0  0  0  0  0  0  0  0
   -2.5979    0.3157    0.2378 H   0  0  0  0  0  0  0  0  0  0  0  0
   -3.5003   -0.2911    2.9767 H   0  0  0  0  0  0  0  0  0  0  0  0
   -1.2332    0.7326    2.9071 H   0  0  0  0  0  0  0  0  0  0  0  0
   -2.3724    1.9613    3.4263 H   0  0  0  0  0  0  0  0  0  0  0  0
   -1.7867    1.9648    1.7566 H   0  0  0  0  0  0  0  0  0  0  0  0
   -4.3572    1.9300    1.0180 H   0  0  0  0  0  0  0  0  0  0  0  0
   -4.6614    1.9994    2.7605 H   0  0  0  0  0  0  0  0  0  0  0  0
   -5.4113    0.7349    1.8091 H   0  0  0  0  0  0  0  0  0  0  0  0
   -4.8268   -0.3163    0.0252 H   0  0  0  0  0  0  0  0  0  0  0  0
   -3.1345   -0.8390   -1.7254 H   0  0  0  0  0  0  0  0  0  0  0  0
   -2.9826   -2.4836   -1.0769 H   0  0  0  0  0  0  0  0  0  0  0  0
   -4.5237   -1.9313   -1.7230 H   0  0  0  0  0  0  0  0  0  0  0  0
   -5.0510   -1.7784    2.0500 H   0  0  0  0  0  0  0  0  0  0  0  0
   -5.5600   -2.6243    0.5919 H   0  0  0  0  0  0  0  0  0  0  0  0
   -3.9932   -2.9910    1.3119 H   0  0  0  0  0  0  0  0  0  0  0  0
  1  2  1  0
  2  3  1  0
  4  3  1  1
  4  5  1  0
  4  6  2  0
  4  7  1  0
  7  8  1  0
  8  9  1  0
  9 10  1  0
 10 11  1  0
 11 12  1  0
 11 13  1  0
 10 14  1  0
 14 15  1  0
 14 16  1  0
  1 17  1  0
  1 18  1  0
  1 19  1  0
  2 20  1  0
  2 21  1  0
  5 22  1  0
  5 23  1  0
  5 24  1  0
  8 25  1  0
  8 26  1  0
  9 27  1  0
  9 28  1  0
 10 29  1  6
 11 30  1  6
 12 31  1  0
 12 32  1  0
 12 33  1  0
 13 34  1  0
 13 35  1  0
 13 36  1  0
 14 37  1  6
 15 38  1  0
 15 39  1  0
 15 40  1  0
 16 41  1  0
 16 42  1  0
 16 43  1  0
M  CHG  1  10   1
M  END
$$$$
