VX
     RDKit          3D

 43 42  0  0  0  0  0  0  0  0999 V2000
    4.0642    1.7397    2.3052 C   0  0  0  0  0  0  0  0  0  0  0  0
    3.8052    1.2304    0.9021 C   0  0  0  0  0  0  0  0  0  0  0  0
    2.9937    0.0670    0.9861 O   0  0  0  0  0  0  0  0  0  0  0  0
    2.6867   -0.7344   -0.3853 P   0  0  2  0  0  0  0  0  0  0  0  0
    3.5462   -2.2679   -0.6783 C   0  0  0  0  0  0  0  0  0  0  0  0
    1.7076   -0.2181   -1.3977 O   0  0  0  0  0  0  0  0  0  0  0  0
    0.9500   -1.9139    0.6928 S   0  0  0  0  0  0  0  0  0  0  0  0
   -0.4703   -0.8038    0.4153 C   0  0  0  0  0  0  0  0  0  0  0  0
   -1.7085   -1.2726    1.1893 C   0  0  0  0  0  0  0  0  0  0  0  0
   -1.3695   -1.5922    2.6648 N   0  0  2  0  0  0  0  0  0  0  0  0
   -2.2496   -2.7088    3.2677 C   0  0  2  0  0  0  0  0  0  0  0  0
   -1.8016   -3.0671    4.6855 C   0  0  0  0  0  0  0  0  0  0  0  0
   -2.1516   -3.9894    2.4253 C   0  0  0  0  0  0  0  0  0  0  0  0
   -1.2267   -0.2748    3.4543 C   0  0  2  0  0  0  0  0  0  0  0  0
   -0.1092   -0.3646    4.4892 C   0  0  0  0  0  0  0  0  0  0  0  0
   -2.5558    0.2156    4.0173 C   0  0  0  0  0  0  0  0  0  0  0  0
    4.5884    0.9816    2.8976 H   0  0  0  0  0  0  0  0  0  0  0  0
    4.6704    2.6495    2.2839 H   0  0  0  0  0  0  0  0  0  0  0  0
    3.1213    1.9538    2.8195 H   0  0  0  0  0  0  0  0  0  0  0  0
    4.7510    0.9895    0.4086 H   0  0  0  0  0  0  0  0  0  0  0  0
    3.2823    1.9922    0.3159 H   0  0  0  0  0  0  0  0  0  0  0  0
    4.4985   -2.0918   -1.1846 H   0  0  0  0  0  0  0  0  0  0  0  0
    2.9451   -2.9261   -1.3113 H   0  0  0  0  0  0  0  0  0  0  0  0
    3.7489   -2.7863    0.2630 H   0  0  0  0  0  0  0  0  0  0  0  0
   -0.1808    0.2085    0.7126 H   0  0  0  0  0  0  0  0  0  0  0  0
   -0.6986   -0.7769   -0.6550 H   0  0  0  0  0  0  0  0  0  0  0  0
   -2.5066   -0.5235    1.1812 H   0  0  0  0  0  0  0  0  0  0  0  0
   -2.0932   -2.1720    0.7104 H   0  0  0  0  0  0  0  0  0  0  0  0
   -0.4211   -2.0007    2.6057 H   0  0  0  0  0  0  0  0  0  0  0  0
   -3.2814   -2.3410    3.2676 H   0  0  0  0  0  0  0  0  0  0  0  0
   -2.3313   -3.9573    5.0455 H   0  0  0  0  0  0  0  0  0  0  0  0
   -0.7286   -3.2834    4.7259 H   0  0  0  0  0  0  0  0  0  0  0  0
   -2.0333   -2.2798    5.4046 H   0  0  0  0  0  0  0  0  0  0  0  0
   -1.1110   -4.2505    2.2063 H   0  0  0  0  0  0  0  0  0  0  0  0
   -2.6061   -4.8374    2.9522 H   0  0  0  0  0  0  0  0  0  0  0  0
   -2.6972   -3.9089    1.4813 H   0  0  0  0  0  0  0  0  0  0  0  0
   -0.8915    0.4727    2.7278 H   0  0  0  0  0  0  0  0  0  0  0  0
    0.7971   -0.8069    4.0627 H   0  0  0  0  0  0  0  0  0  0  0  0
    0.1538    0.6418    4.8362 H   0  0  0  0  0  0  0  0  0  0  0  0
   -0.3866   -0.9343    5.3775 H   0  0  0  0  0  0  0  0  0  0  0  0
   -3.3254    0.2656    3.2399 H   0  0  0  0  0  0  0  0  0  0  0  0
   -2.4383    1.2258    4.4254 H   0  0  0  0  0  0  0  0  0  0  0  0
   -2.9335   -0.4119    4.8274 H   0  0  0  0  0  0  0  0  0  0  0  0
  1  2  1  0
  2  3  1  0
  4  3  1  1
  4  5  1  0
  4  6  2  0
  4  7  1  0
  7  8  1  0
  8  9  1  0
  9 10  1  0
 10 11  1  0
 11 12  1  0
 11 13  1  0
 10 14  1  0
 14 15  1  0
 14 16  1  0
  1 17  1  0
  1 18  1  0
  1 19  1  0
  2 20  1  0
  2 21  1  0
  5 22  1  0
  5 23  1  0
  5 24  1  0
  8 25  1  0
  8 26  1  0
  9 27  1  0
  9 28  1  0
 10 29  1  6
 11 30  1  1
 12 31  1  0
 12 32  1  0
 12 33  1  0
 13 34  1  0
 13 35  1  0
 13 36  1  0
 14 37  1  1
 15 38  1  0
 15 39  1  0
 15 40  1  0
 16 41  1  0
 16 42  1  0
 16 43  1  0
M  CHG  1  10   1
M  END
$$$$
