VX
     RDKit          3D

 43 42  0  0  0  0  0  0  0  0999 V2000
    2.9267    2.4584    1.0005 C   0  0  0  0  0  0  0  0  0  0  0  0
    3.8103    1.2318    0.9123 C   0  0  0  0  0  0  0  0  0  0  0  0
    2.9985    0.0627    0.9891 O   0  0  0  0  0  0  0  0  0  0  0  0
    2.6822   -0.7298   -0.3875 P   0  0  2  0  0  0  0  0  0  0  0  0
    3.5477   -2.2670   -0.6749 C   0  0  0  0  0  0  0  0  0  0  0  0
    1.7058   -0.2193   -1.4018 O   0  0  0  0  0  0  0  0  0  0  0  0
    0.9455   -1.9093    0.6906 S   0  0  0  0  0  0  0  0  0  0  0  0
    1.4955   -2.0483    2.4127 C   0  0  0  0  0  0  0  0  0  0  0  0
    0.3212   -2.3636    3.3535 C   0  0  0  0  0  0  0  0  0  0  0  0
   -0.9205   -1.5056    3.0415 N   0  0  2  0  0  0  0  0  0  0  0  0
   -0.7531   -0.0440    3.4854 C   0  0  2  0  0  0  0  0  0  0  0  0
   -1.0867    0.1686    4.9504 C   0  0  0  0  0  0  0  0  0  0  0  0
   -1.5024    0.9105    2.5640 C   0  0  0  0  0  0  0  0  0  0  0  0
   -2.2162   -2.2864    3.2899 C   0  0  2  0  0  0  0  0  0  0  0  0
   -3.4305   -1.5837    2.6997 C   0  0  0  0  0  0  0  0  0  0  0  0
   -2.4199   -2.6661    4.7505 C   0  0  0  0  0  0  0  0  0  0  0  0
    2.2152    2.4886    0.1701 H   0  0  0  0  0  0  0  0  0  0  0  0
    2.3368    2.4369    1.9232 H   0  0  0  0  0  0  0  0  0  0  0  0
    3.5222    3.3774    0.9878 H   0  0  0  0  0  0  0  0  0  0  0  0
    4.4064    1.2368   -0.0059 H   0  0  0  0  0  0  0  0  0  0  0  0
    4.5026    1.2163    1.7586 H   0  0  0  0  0  0  0  0  0  0  0  0
    3.6597   -2.8306    0.2501 H   0  0  0  0  0  0  0  0  0  0  0  0
    2.9927   -2.8851   -1.3844 H   0  0  0  0  0  0  0  0  0  0  0  0
    4.5412   -2.0804   -1.0822 H   0  0  0  0  0  0  0  0  0  0  0  0
    2.2493   -2.8373    2.4830 H   0  0  0  0  0  0  0  0  0  0  0  0
    1.9787   -1.1160    2.7256 H   0  0  0  0  0  0  0  0  0  0  0  0
    0.0350   -3.4159    3.2291 H   0  0  0  0  0  0  0  0  0  0  0  0
    0.5969   -2.1957    4.3988 H   0  0  0  0  0  0  0  0  0  0  0  0
   -0.8808   -1.4549    2.0077 H   0  0  0  0  0  0  0  0  0  0  0  0
    0.3137    0.1815    3.3555 H   0  0  0  0  0  0  0  0  0  0  0  0
   -0.5917   -0.5683    5.5907 H   0  0  0  0  0  0  0  0  0  0  0  0
   -2.1610    0.1440    5.1373 H   0  0  0  0  0  0  0  0  0  0  0  0
   -0.7382    1.1566    5.2727 H   0  0  0  0  0  0  0  0  0  0  0  0
   -1.4588    0.5778    1.5258 H   0  0  0  0  0  0  0  0  0  0  0  0
   -1.0486    1.9047    2.6058 H   0  0  0  0  0  0  0  0  0  0  0  0
   -2.5485    1.0350    2.8445 H   0  0  0  0  0  0  0  0  0  0  0  0
   -2.0861   -3.2145    2.7209 H   0  0  0  0  0  0  0  0  0  0  0  0
   -4.2869   -2.2622    2.6850 H   0  0  0  0  0  0  0  0  0  0  0  0
   -3.7268   -0.7119    3.2847 H   0  0  0  0  0  0  0  0  0  0  0  0
   -3.2554   -1.2756    1.6652 H   0  0  0  0  0  0  0  0  0  0  0  0
   -1.4956   -2.9743    5.2433 H   0  0  0  0  0  0  0  0  0  0  0  0
   -2.8635   -1.8591    5.3352 H   0  0  0  0  0  0  0  0  0  0  0  0
   -3.1210   -3.5096    4.8130 H   0  0  0  0  0  0  0  0  0  0  0  0
  1  2  1  0
  2  3  1  0
  4  3  1  1
  4  5  1  0
  4  6  2  0
  4  7  1  0
  7  8  1  0
  8  9  1  0
  9 10  1  0
 10 11  1  0
 11 12  1  0
 11 13  1  0
 10 14  1  0
 14 15  1  0
 14 16  1  0
  1 17  1  0
  1 18  1  0
  1 19  1  0
  2 20  1  0
  2 21  1  0
  5 22  1  0
  5 23  1  0
  5 24  1  0
  8 25  1  0
  8 26  1  0
  9 27  1  0
  9 28  1  0
 10 29  1  6
 11 30  1  1
 12 31  1  0
 12 32  1  0
 12 33  1  0
 13 34  1  0
 13 35  1  0
 13 36  1  0
 14 37  1  1
 15 38  1  0
 15 39  1  0
 15 40  1  0
 16 41  1  0
 16 42  1  0
 16 43  1  0
M  CHG  1  10   1
M  END
$$$$
