VX
     RDKit          3D

 43 42  0  0  0  0  0  0  0  0999 V2000
    4.0007    1.7742    2.3093 C   0  0  0  0  0  0  0  0  0  0  0  0
    3.8520    1.1961    0.9173 C   0  0  0  0  0  0  0  0  0  0  0  0
    2.9932    0.0673    0.9856 O   0  0  0  0  0  0  0  0  0  0  0  0
    2.6875   -0.7349   -0.3845 P   0  0  2  0  0  0  0  0  0  0  0  0
    3.5467   -2.2686   -0.6784 C   0  0  0  0  0  0  0  0  0  0  0  0
    1.7069   -0.2172   -1.3979 O   0  0  0  0  0  0  0  0  0  0  0  0
    0.9508   -1.9143    0.6936 S   0  0  0  0  0  0  0  0  0  0  0  0
   -0.3817   -0.6885    0.6887 C   0  0  0  0  0  0  0  0  0  0  0  0
   -1.6456   -1.2625    1.3271 C   0  0  0  0  0  0  0  0  0  0  0  0
   -2.7991   -0.2359    1.2487 N   0  0  1  0  0  0  0  0  0  0  0  0
   -3.8996   -0.6773    0.2548 C   0  0  2  0  0  0  0  0  0  0  0  0
   -3.3049   -0.7844   -1.1536 C   0  0  0  0  0  0  0  0  0  0  0  0
   -5.0508    0.3294    0.2218 C   0  0  0  0  0  0  0  0  0  0  0  0
   -3.3031    0.2187    2.6292 C   0  0  1  0  0  0  0  0  0  0  0  0
   -3.9437   -0.9267    3.4062 C   0  0  0  0  0  0  0  0  0  0  0  0
   -2.1729    0.8958    3.4058 C   0  0  0  0  0  0  0  0  0  0  0  0
    3.0250    2.0656    2.7122 H   0  0  0  0  0  0  0  0  0  0  0  0
    4.4178    1.0282    2.9940 H   0  0  0  0  0  0  0  0  0  0  0  0
    4.6552    2.6502    2.3005 H   0  0  0  0  0  0  0  0  0  0  0  0
    4.8292    0.8937    0.5304 H   0  0  0  0  0  0  0  0  0  0  0  0
    3.4179    1.9429    0.2453 H   0  0  0  0  0  0  0  0  0  0  0  0
    2.9304   -2.9411   -1.2821 H   0  0  0  0  0  0  0  0  0  0  0  0
    4.4834   -2.0977   -1.2154 H   0  0  0  0  0  0  0  0  0  0  0  0
    3.7783   -2.7704    0.2654 H   0  0  0  0  0  0  0  0  0  0  0  0
   -0.0440    0.1969    1.2366 H   0  0  0  0  0  0  0  0  0  0  0  0
   -0.5737   -0.3886   -0.3450 H   0  0  0  0  0  0  0  0  0  0  0  0
   -1.4654   -1.5071    2.3768 H   0  0  0  0  0  0  0  0  0  0  0  0
   -1.9827   -2.1822    0.8374 H   0  0  0  0  0  0  0  0  0  0  0  0
   -2.4100    0.6207    0.8306 H   0  0  0  0  0  0  0  0  0  0  0  0
   -4.2612   -1.6557    0.5889 H   0  0  0  0  0  0  0  0  0  0  0  0
   -4.0852   -1.0338   -1.8815 H   0  0  0  0  0  0  0  0  0  0  0  0
   -2.8464    0.1600   -1.4665 H   0  0  0  0  0  0  0  0  0  0  0  0
   -2.5496   -1.5718   -1.2254 H   0  0  0  0  0  0  0  0  0  0  0  0
   -4.6886    1.3503    0.0590 H   0  0  0  0  0  0  0  0  0  0  0  0
   -5.7500    0.0897   -0.5873 H   0  0  0  0  0  0  0  0  0  0  0  0
   -5.6351    0.3080    1.1466 H   0  0  0  0  0  0  0  0  0  0  0  0
   -4.0503    0.9952    2.4416 H   0  0  0  0  0  0  0  0  0  0  0  0
   -4.3440   -0.5561    4.3566 H   0  0  0  0  0  0  0  0  0  0  0  0
   -3.2324   -1.7226    3.6443 H   0  0  0  0  0  0  0  0  0  0  0  0
   -4.7785   -1.3719    2.8572 H   0  0  0  0  0  0  0  0  0  0  0  0
   -2.5710    1.3671    4.3114 H   0  0  0  0  0  0  0  0  0  0  0  0
   -1.6993    1.6810    2.8068 H   0  0  0  0  0  0  0  0  0  0  0  0
   -1.3979    0.1931    3.7244 H   0  0  0  0  0  0  0  0  0  0  0  0
  1  2  1  0
  2  3  1  0
  4  3  1  1
  4  5  1  0
  4  6  2  0
  4  7  1  0
  7  8  1  0
  8  9  1  0
  9 10  1  0
 10 11  1  0
 11 12  1  0
 11 13  1  0
 10 14  1  0
 14 15  1  0
 14 16  1  0
  1 17  1  0
  1 18  1  0
  1 19  1  0
  2 20  1  0
  2 21  1  0
  5 22  1  0
  5 23  1  0
  5 24  1  0
  8 25  1  0
  8 26  1  0
  9 27  1  0
  9 28  1  0
 10 29  1  1
 11 30  1  1
 12 31  1  0
 12 32  1  0
 12 33  1  0
 13 34  1  0
 13 35  1  0
 13 36  1  0
 14 37  1  6
 15 38  1  0
 15 39  1  0
 15 40  1  0
 16 41  1  0
 16 42  1  0
 16 43  1  0
M  CHG  1  10   1
M  END
$$$$
