VX
     RDKit          3D

 43 42  0  0  0  0  0  0  0  0999 V2000
    3.2096    0.2387    3.3438 C   0  0  0  0  0  0  0  0  0  0  0  0
    3.5490   -0.5631    2.1043 C   0  0  0  0  0  0  0  0  0  0  0  0
    2.9773    0.0847    0.9791 O   0  0  0  0  0  0  0  0  0  0  0  0
    2.6978   -0.7454   -0.3793 P   0  0  2  0  0  0  0  0  0  0  0  0
    3.5460   -2.2799   -0.6917 C   0  0  0  0  0  0  0  0  0  0  0  0
    1.7130   -0.2128   -1.3832 O   0  0  0  0  0  0  0  0  0  0  0  0
    0.9611   -1.9248    0.6987 S   0  0  0  0  0  0  0  0  0  0  0  0
   -0.1800   -0.6347    1.2824 C   0  0  0  0  0  0  0  0  0  0  0  0
   -0.5906    0.3441    0.1756 C   0  0  0  0  0  0  0  0  0  0  0  0
   -1.6968    1.3281    0.6093 N   0  0  1  0  0  0  0  0  0  0  0  0
   -3.0586    0.6090    0.7138 C   0  0  2  0  0  0  0  0  0  0  0  0
   -4.1117    1.3721   -0.0874 C   0  0  0  0  0  0  0  0  0  0  0  0
   -3.4960    0.3354    2.1490 C   0  0  0  0  0  0  0  0  0  0  0  0
   -1.3022    2.3197    1.7216 C   0  0  2  0  0  0  0  0  0  0  0  0
   -2.2723    3.5032    1.7431 C   0  0  0  0  0  0  0  0  0  0  0  0
    0.1077    2.8778    1.4905 C   0  0  0  0  0  0  0  0  0  0  0  0
    2.1242    0.3082    3.4715 H   0  0  0  0  0  0  0  0  0  0  0  0
    3.6417   -0.2211    4.2369 H   0  0  0  0  0  0  0  0  0  0  0  0
    3.5858    1.2633    3.2560 H   0  0  0  0  0  0  0  0  0  0  0  0
    3.1594   -1.5808    2.1996 H   0  0  0  0  0  0  0  0  0  0  0  0
    4.6339   -0.6104    1.9711 H   0  0  0  0  0  0  0  0  0  0  0  0
    3.7151   -2.8410    0.2314 H   0  0  0  0  0  0  0  0  0  0  0  0
    4.5145   -2.0924   -1.1637 H   0  0  0  0  0  0  0  0  0  0  0  0
    2.9557   -2.9093   -1.3639 H   0  0  0  0  0  0  0  0  0  0  0  0
   -1.0508   -1.1603    1.6790 H   0  0  0  0  0  0  0  0  0  0  0  0
    0.2966   -0.1083    2.1139 H   0  0  0  0  0  0  0  0  0  0  0  0
   -0.9772   -0.1790   -0.7072 H   0  0  0  0  0  0  0  0  0  0  0  0
    0.2388    0.9681   -0.1563 H   0  0  0  0  0  0  0  0  0  0  0  0
   -1.7767    1.9225   -0.2281 H   0  0  0  0  0  0  0  0  0  0  0  0
   -2.9311   -0.3597    0.2158 H   0  0  0  0  0  0  0  0  0  0  0  0
   -3.7871    1.5171   -1.1235 H   0  0  0  0  0  0  0  0  0  0  0  0
   -5.0488    0.8051   -0.1146 H   0  0  0  0  0  0  0  0  0  0  0  0
   -4.3381    2.3525    0.3365 H   0  0  0  0  0  0  0  0  0  0  0  0
   -3.7941    1.2409    2.6820 H   0  0  0  0  0  0  0  0  0  0  0  0
   -2.7155   -0.1600    2.7319 H   0  0  0  0  0  0  0  0  0  0  0  0
   -4.3682   -0.3285    2.1486 H   0  0  0  0  0  0  0  0  0  0  0  0
   -1.3249    1.7760    2.6709 H   0  0  0  0  0  0  0  0  0  0  0  0
   -2.3434    3.9806    0.7597 H   0  0  0  0  0  0  0  0  0  0  0  0
   -3.2765    3.2171    2.0580 H   0  0  0  0  0  0  0  0  0  0  0  0
   -1.9353    4.2637    2.4569 H   0  0  0  0  0  0  0  0  0  0  0  0
    0.2096    3.3111    0.4894 H   0  0  0  0  0  0  0  0  0  0  0  0
    0.3340    3.6654    2.2184 H   0  0  0  0  0  0  0  0  0  0  0  0
    0.8792    2.1139    1.6202 H   0  0  0  0  0  0  0  0  0  0  0  0
  1  2  1  0
  2  3  1  0
  4  3  1  1
  4  5  1  0
  4  6  2  0
  4  7  1  0
  7  8  1  0
  8  9  1  0
  9 10  1  0
 10 11  1  0
 11 12  1  0
 11 13  1  0
 10 14  1  0
 14 15  1  0
 14 16  1  0
  1 17  1  0
  1 18  1  0
  1 19  1  0
  2 20  1  0
  2 21  1  0
  5 22  1  0
  5 23  1  0
  5 24  1  0
  8 25  1  0
  8 26  1  0
  9 27  1  0
  9 28  1  0
 10 29  1  1
 11 30  1  6
 12 31  1  0
 12 32  1  0
 12 33  1  0
 13 34  1  0
 13 35  1  0
 13 36  1  0
 14 37  1  6
 15 38  1  0
 15 39  1  0
 15 40  1  0
 16 41  1  0
 16 42  1  0
 16 43  1  0
M  CHG  1  10   1
M  END
$$$$
