VX
     RDKit          3D

 43 42  0  0  0  0  0  0  0  0999 V2000
    4.0015    1.7551    2.3268 C   0  0  0  0  0  0  0  0  0  0  0  0
    3.8765    1.1732    0.9344 C   0  0  0  0  0  0  0  0  0  0  0  0
    2.9973    0.0609    0.9852 O   0  0  0  0  0  0  0  0  0  0  0  0
    2.6850   -0.7315   -0.3848 P   0  0  2  0  0  0  0  0  0  0  0  0
    3.5474   -2.2654   -0.6737 C   0  0  0  0  0  0  0  0  0  0  0  0
    1.7045   -0.2173   -1.4019 O   0  0  0  0  0  0  0  0  0  0  0  0
    0.9483   -1.9110    0.6933 S   0  0  0  0  0  0  0  0  0  0  0  0
   -0.5148   -1.6218   -0.3382 C   0  0  0  0  0  0  0  0  0  0  0  0
   -1.0051   -0.1705   -0.2444 C   0  0  0  0  0  0  0  0  0  0  0  0
   -2.3722   -0.0160   -0.9569 N   0  0  2  0  0  0  0  0  0  0  0  0
   -2.2491    0.8027   -2.2650 C   0  0  1  0  0  0  0  0  0  0  0  0
   -1.3376    0.0639   -3.2500 C   0  0  0  0  0  0  0  0  0  0  0  0
   -3.6171    0.9962   -2.9254 C   0  0  0  0  0  0  0  0  0  0  0  0
   -3.4992    0.4272   -0.0090 C   0  0  1  0  0  0  0  0  0  0  0  0
   -3.7004   -0.6103    1.0962 C   0  0  0  0  0  0  0  0  0  0  0  0
   -3.2622    1.8297    0.5394 C   0  0  0  0  0  0  0  0  0  0  0  0
    4.3823    1.0032    3.0262 H   0  0  0  0  0  0  0  0  0  0  0  0
    3.0220    2.0714    2.7022 H   0  0  0  0  0  0  0  0  0  0  0  0
    4.6761    2.6150    2.3306 H   0  0  0  0  0  0  0  0  0  0  0  0
    4.8580    0.8526    0.5736 H   0  0  0  0  0  0  0  0  0  0  0  0
    3.4719    1.9247    0.2483 H   0  0  0  0  0  0  0  0  0  0  0  0
    4.4852   -2.0926   -1.2066 H   0  0  0  0  0  0  0  0  0  0  0  0
    3.7757   -2.7683    0.2697 H   0  0  0  0  0  0  0  0  0  0  0  0
    2.9319   -2.9363   -1.2826 H   0  0  0  0  0  0  0  0  0  0  0  0
   -1.2964   -2.3040    0.0124 H   0  0  0  0  0  0  0  0  0  0  0  0
   -0.2831   -1.8975   -1.3703 H   0  0  0  0  0  0  0  0  0  0  0  0
   -1.1302    0.1206    0.8013 H   0  0  0  0  0  0  0  0  0  0  0  0
   -0.3184    0.5523   -0.6887 H   0  0  0  0  0  0  0  0  0  0  0  0
   -2.6589   -0.9542   -1.2686 H   0  0  0  0  0  0  0  0  0  0  0  0
   -1.8188    1.7741   -1.9977 H   0  0  0  0  0  0  0  0  0  0  0  0
   -0.3091    0.0041   -2.8912 H   0  0  0  0  0  0  0  0  0  0  0  0
   -1.2999    0.5909   -4.2096 H   0  0  0  0  0  0  0  0  0  0  0  0
   -1.6940   -0.9538   -3.4411 H   0  0  0  0  0  0  0  0  0  0  0  0
   -4.1398    0.0410   -3.0552 H   0  0  0  0  0  0  0  0  0  0  0  0
   -4.2570    1.6702   -2.3486 H   0  0  0  0  0  0  0  0  0  0  0  0
   -3.5054    1.4537   -3.9150 H   0  0  0  0  0  0  0  0  0  0  0  0
   -4.4192    0.4192   -0.6019 H   0  0  0  0  0  0  0  0  0  0  0  0
   -2.8590   -0.6562    1.7948 H   0  0  0  0  0  0  0  0  0  0  0  0
   -4.5923   -0.3623    1.6831 H   0  0  0  0  0  0  0  0  0  0  0  0
   -3.8514   -1.6106    0.6734 H   0  0  0  0  0  0  0  0  0  0  0  0
   -4.0964    2.1267    1.1828 H   0  0  0  0  0  0  0  0  0  0  0  0
   -2.3497    1.9010    1.1380 H   0  0  0  0  0  0  0  0  0  0  0  0
   -3.2010    2.5702   -0.2636 H   0  0  0  0  0  0  0  0  0  0  0  0
  1  2  1  0
  2  3  1  0
  4  3  1  1
  4  5  1  0
  4  6  2  0
  4  7  1  0
  7  8  1  0
  8  9  1  0
  9 10  1  0
 10 11  1  0
 11 12  1  0
 11 13  1  0
 10 14  1  0
 14 15  1  0
 14 16  1  0
  1 17  1  0
  1 18  1  0
  1 19  1  0
  2 20  1  0
  2 21  1  0
  5 22  1  0
  5 23  1  0
  5 24  1  0
  8 25  1  0
  8 26  1  0
  9 27  1  0
  9 28  1  0
 10 29  1  6
 11 30  1  6
 12 31  1  0
 12 32  1  0
 12 33  1  0
 13 34  1  0
 13 35  1  0
 13 36  1  0
 14 37  1  6
 15 38  1  0
 15 39  1  0
 15 40  1  0
 16 41  1  0
 16 42  1  0
 16 43  1  0
M  CHG  1  10   1
M  END
$$$$
