VX
     RDKit          3D

 43 42  0  0  0  0  0  0  0  0999 V2000
    4.2253    0.2287    3.0076 C   0  0  0  0  0  0  0  0  0  0  0  0
    3.2570   -0.6034    2.1924 C   0  0  0  0  0  0  0  0  0  0  0  0
    2.9815    0.0794    0.9799 O   0  0  0  0  0  0  0  0  0  0  0  0
    2.6957   -0.7425   -0.3797 P   0  0  2  0  0  0  0  0  0  0  0  0
    3.5470   -2.2774   -0.6876 C   0  0  0  0  0  0  0  0  0  0  0  0
    1.7101   -0.2127   -1.3878 O   0  0  0  0  0  0  0  0  0  0  0  0
    0.9589   -1.9220    0.6984 S   0  0  0  0  0  0  0  0  0  0  0  0
   -0.5429   -1.2124   -0.0381 C   0  0  0  0  0  0  0  0  0  0  0  0
   -0.6955    0.2771    0.3096 C   0  0  0  0  0  0  0  0  0  0  0  0
   -1.8201    0.9263   -0.5357 N   0  0  1  0  0  0  0  0  0  0  0  0
   -2.5993    2.0128    0.2397 C   0  0  1  0  0  0  0  0  0  0  0  0
   -3.7330    2.5969   -0.6039 C   0  0  0  0  0  0  0  0  0  0  0  0
   -3.2394    1.4024    1.4966 C   0  0  0  0  0  0  0  0  0  0  0  0
   -1.2280    1.3075   -1.9181 C   0  0  1  0  0  0  0  0  0  0  0  0
   -2.2601    1.1339   -3.0278 C   0  0  0  0  0  0  0  0  0  0  0  0
   -0.5537    2.6747   -1.9123 C   0  0  0  0  0  0  0  0  0  0  0  0
    3.8117    1.2238    3.2016 H   0  0  0  0  0  0  0  0  0  0  0  0
    5.1622    0.3738    2.4599 H   0  0  0  0  0  0  0  0  0  0  0  0
    4.4473   -0.2551    3.9634 H   0  0  0  0  0  0  0  0  0  0  0  0
    3.6811   -1.5927    2.0021 H   0  0  0  0  0  0  0  0  0  0  0  0
    2.3171   -0.7293    2.7378 H   0  0  0  0  0  0  0  0  0  0  0  0
    2.9594   -2.9057   -1.3628 H   0  0  0  0  0  0  0  0  0  0  0  0
    4.5162   -2.0873   -1.1572 H   0  0  0  0  0  0  0  0  0  0  0  0
    3.7160   -2.8443    0.2310 H   0  0  0  0  0  0  0  0  0  0  0  0
   -1.4058   -1.7685    0.3432 H   0  0  0  0  0  0  0  0  0  0  0  0
   -0.5047   -1.3825   -1.1176 H   0  0  0  0  0  0  0  0  0  0  0  0
    0.2063    0.8731    0.1540 H   0  0  0  0  0  0  0  0  0  0  0  0
   -0.9532    0.3608    1.3653 H   0  0  0  0  0  0  0  0  0  0  0  0
   -2.5073    0.1834   -0.7159 H   0  0  0  0  0  0  0  0  0  0  0  0
   -1.8808    2.7910    0.5196 H   0  0  0  0  0  0  0  0  0  0  0  0
   -4.3662    1.8107   -1.0282 H   0  0  0  0  0  0  0  0  0  0  0  0
   -3.3647    3.2317   -1.4110 H   0  0  0  0  0  0  0  0  0  0  0  0
   -4.3752    3.2433    0.0061 H   0  0  0  0  0  0  0  0  0  0  0  0
   -3.7609    0.4665    1.2680 H   0  0  0  0  0  0  0  0  0  0  0  0
   -3.9689    2.0912    1.9376 H   0  0  0  0  0  0  0  0  0  0  0  0
   -2.5075    1.2092    2.2846 H   0  0  0  0  0  0  0  0  0  0  0  0
   -0.4577    0.5596   -2.1247 H   0  0  0  0  0  0  0  0  0  0  0  0
   -3.0080    1.9271   -3.0539 H   0  0  0  0  0  0  0  0  0  0  0  0
   -1.7585    1.1498   -4.0024 H   0  0  0  0  0  0  0  0  0  0  0  0
   -2.7769    0.1724   -2.9449 H   0  0  0  0  0  0  0  0  0  0  0  0
   -0.0237    2.8305   -2.8590 H   0  0  0  0  0  0  0  0  0  0  0  0
    0.1854    2.7589   -1.1098 H   0  0  0  0  0  0  0  0  0  0  0  0
   -1.2630    3.4983   -1.8065 H   0  0  0  0  0  0  0  0  0  0  0  0
  1  2  1  0
  2  3  1  0
  4  3  1  1
  4  5  1  0
  4  6  2  0
  4  7  1  0
  7  8  1  0
  8  9  1  0
  9 10  1  0
 10 11  1  0
 11 12  1  0
 11 13  1  0
 10 14  1  0
 14 15  1  0
 14 16  1  0
  1 17  1  0
  1 18  1  0
  1 19  1  0
  2 20  1  0
  2 21  1  0
  5 22  1  0
  5 23  1  0
  5 24  1  0
  8 25  1  0
  8 26  1  0
  9 27  1  0
  9 28  1  0
 10 29  1  1
 11 30  1  6
 12 31  1  0
 12 32  1  0
 12 33  1  0
 13 34  1  0
 13 35  1  0
 13 36  1  0
 14 37  1  6
 15 38  1  0
 15 39  1  0
 15 40  1  0
 16 41  1  0
 16 42  1  0
 16 43  1  0
M  CHG  1  10   1
M  END
$$$$
