VX
     RDKit          3D

 43 42  0  0  0  0  0  0  0  0999 V2000
    3.2588    0.2458    3.3425 C   0  0  0  0  0  0  0  0  0  0  0  0
    3.5302   -0.5912    2.1096 C   0  0  0  0  0  0  0  0  0  0  0  0
    2.9865    0.0744    0.9824 O   0  0  0  0  0  0  0  0  0  0  0  0
    2.6917   -0.7388   -0.3820 P   0  0  2  0  0  0  0  0  0  0  0  0
    3.5470   -2.2741   -0.6838 C   0  0  0  0  0  0  0  0  0  0  0  0
    1.7090   -0.2148   -1.3918 O   0  0  0  0  0  0  0  0  0  0  0  0
    0.9550   -1.9183    0.6961 S   0  0  0  0  0  0  0  0  0  0  0  0
   -0.4392   -0.7793    0.4714 C   0  0  0  0  0  0  0  0  0  0  0  0
   -1.7182   -1.3515    1.0847 C   0  0  0  0  0  0  0  0  0  0  0  0
   -2.9124   -0.3964    0.8602 N   0  0  2  0  0  0  0  0  0  0  0  0
   -3.8348   -0.3611    2.0862 C   0  0  1  0  0  0  0  0  0  0  0  0
   -4.8750    0.7459    1.9878 C   0  0  0  0  0  0  0  0  0  0  0  0
   -4.4544   -1.7118    2.4334 C   0  0  0  0  0  0  0  0  0  0  0  0
   -3.4687   -0.5141   -0.5691 C   0  0  1  0  0  0  0  0  0  0  0  0
   -4.5581   -1.5614   -0.7227 C   0  0  0  0  0  0  0  0  0  0  0  0
   -3.8868    0.8541   -1.1027 C   0  0  0  0  0  0  0  0  0  0  0  0
    3.6728   -0.2294    4.2361 H   0  0  0  0  0  0  0  0  0  0  0  0
    3.6983    1.2432    3.2367 H   0  0  0  0  0  0  0  0  0  0  0  0
    2.1818    0.3856    3.4834 H   0  0  0  0  0  0  0  0  0  0  0  0
    4.6085   -0.7081    1.9663 H   0  0  0  0  0  0  0  0  0  0  0  0
    3.0792   -1.5813    2.2231 H   0  0  0  0  0  0  0  0  0  0  0  0
    4.5162   -2.0855   -1.1539 H   0  0  0  0  0  0  0  0  0  0  0  0
    2.9602   -2.9085   -1.3545 H   0  0  0  0  0  0  0  0  0  0  0  0
    3.7144   -2.8294    0.2432 H   0  0  0  0  0  0  0  0  0  0  0  0
   -0.5645   -0.6011   -0.5991 H   0  0  0  0  0  0  0  0  0  0  0  0
   -0.1864    0.1762    0.9428 H   0  0  0  0  0  0  0  0  0  0  0  0
   -1.5858   -1.4583    2.1672 H   0  0  0  0  0  0  0  0  0  0  0  0
   -1.9971   -2.3214    0.6592 H   0  0  0  0  0  0  0  0  0  0  0  0
   -2.4849    0.5395    0.8828 H   0  0  0  0  0  0  0  0  0  0  0  0
   -3.1647   -0.0843    2.9109 H   0  0  0  0  0  0  0  0  0  0  0  0
   -4.4169    1.7013    1.7125 H   0  0  0  0  0  0  0  0  0  0  0  0
   -5.3635    0.8877    2.9586 H   0  0  0  0  0  0  0  0  0  0  0  0
   -5.6639    0.5086    1.2694 H   0  0  0  0  0  0  0  0  0  0  0  0
   -5.2939   -1.9726    1.7861 H   0  0  0  0  0  0  0  0  0  0  0  0
   -4.8551   -1.6772    3.4534 H   0  0  0  0  0  0  0  0  0  0  0  0
   -3.7280   -2.5284    2.4041 H   0  0  0  0  0  0  0  0  0  0  0  0
   -2.6242   -0.8353   -1.1880 H   0  0  0  0  0  0  0  0  0  0  0  0
   -5.5004   -1.2476   -0.2669 H   0  0  0  0  0  0  0  0  0  0  0  0
   -4.7673   -1.7259   -1.7861 H   0  0  0  0  0  0  0  0  0  0  0  0
   -4.2551   -2.5255   -0.3039 H   0  0  0  0  0  0  0  0  0  0  0  0
   -4.8097    1.2216   -0.6502 H   0  0  0  0  0  0  0  0  0  0  0  0
   -4.0672    0.7934   -2.1822 H   0  0  0  0  0  0  0  0  0  0  0  0
   -3.1018    1.6012   -0.9455 H   0  0  0  0  0  0  0  0  0  0  0  0
  1  2  1  0
  2  3  1  0
  4  3  1  1
  4  5  1  0
  4  6  2  0
  4  7  1  0
  7  8  1  0
  8  9  1  0
  9 10  1  0
 10 11  1  0
 11 12  1  0
 11 13  1  0
 10 14  1  0
 14 15  1  0
 14 16  1  0
  1 17  1  0
  1 18  1  0
  1 19  1  0
  2 20  1  0
  2 21  1  0
  5 22  1  0
  5 23  1  0
  5 24  1  0
  8 25  1  0
  8 26  1  0
  9 27  1  0
  9 28  1  0
 10 29  1  6
 11 30  1  6
 12 31  1  0
 12 32  1  0
 12 33  1  0
 13 34  1  0
 13 35  1  0
 13 36  1  0
 14 37  1  6
 15 38  1  0
 15 39  1  0
 15 40  1  0
 16 41  1  0
 16 42  1  0
 16 43  1  0
M  CHG  1  10   1
M  END
$$$$
