VX
     RDKit          3D

 43 42  0  0  0  0  0  0  0  0999 V2000
    3.9293    1.8850    2.2609 C   0  0  0  0  0  0  0  0  0  0  0  0
    4.0412    1.0396    0.9983 C   0  0  0  0  0  0  0  0  0  0  0  0
    2.9833    0.0822    0.9859 O   0  0  0  0  0  0  0  0  0  0  0  0
    2.6962   -0.7449   -0.3814 P   0  0  2  0  0  0  0  0  0  0  0  0
    3.5456   -2.2766   -0.6887 C   0  0  0  0  0  0  0  0  0  0  0  0
    1.7091   -0.2141   -1.3909 O   0  0  0  0  0  0  0  0  0  0  0  0
    0.9595   -1.9243    0.6967 S   0  0  0  0  0  0  0  0  0  0  0  0
   -0.4761   -0.8453    0.4430 C   0  0  0  0  0  0  0  0  0  0  0  0
   -0.2652    0.5378    1.0851 C   0  0  0  0  0  0  0  0  0  0  0  0
   -1.4377    1.4774    0.7605 N   0  0  2  0  0  0  0  0  0  0  0  0
   -1.3023    2.1157   -0.6366 C   0  0  1  0  0  0  0  0  0  0  0  0
   -2.6934    2.3737   -1.2001 C   0  0  0  0  0  0  0  0  0  0  0  0
   -0.4462    3.3716   -0.6343 C   0  0  0  0  0  0  0  0  0  0  0  0
   -1.8505    2.4197    1.9074 C   0  0  1  0  0  0  0  0  0  0  0  0
   -2.8078    1.6548    2.8277 C   0  0  0  0  0  0  0  0  0  0  0  0
   -0.6641    2.9839    2.6944 C   0  0  0  0  0  0  0  0  0  0  0  0
    2.9741    2.4246    2.2877 H   0  0  0  0  0  0  0  0  0  0  0  0
    3.9625    1.2499    3.1472 H   0  0  0  0  0  0  0  0  0  0  0  0
    4.7462    2.6101    2.3164 H   0  0  0  0  0  0  0  0  0  0  0  0
    3.9801    1.6807    0.1000 H   0  0  0  0  0  0  0  0  0  0  0  0
    4.9971    0.5062    0.9975 H   0  0  0  0  0  0  0  0  0  0  0  0
    4.4402   -2.1183   -1.2986 H   0  0  0  0  0  0  0  0  0  0  0  0
    3.8533   -2.7314    0.2566 H   0  0  0  0  0  0  0  0  0  0  0  0
    2.8920   -2.9900   -1.2048 H   0  0  0  0  0  0  0  0  0  0  0  0
   -1.3424   -1.3350    0.9123 H   0  0  0  0  0  0  0  0  0  0  0  0
   -0.6940   -0.7881   -0.6294 H   0  0  0  0  0  0  0  0  0  0  0  0
   -0.2436    0.3939    2.1671 H   0  0  0  0  0  0  0  0  0  0  0  0
    0.6425    1.0450    0.7654 H   0  0  0  0  0  0  0  0  0  0  0  0
   -2.2419    0.8420    0.6540 H   0  0  0  0  0  0  0  0  0  0  0  0
   -0.8216    1.3712   -1.2749 H   0  0  0  0  0  0  0  0  0  0  0  0
   -3.2439    1.4371   -1.2933 H   0  0  0  0  0  0  0  0  0  0  0  0
   -3.2828    3.0570   -0.5713 H   0  0  0  0  0  0  0  0  0  0  0  0
   -2.6280    2.8200   -2.2013 H   0  0  0  0  0  0  0  0  0  0  0  0
   -0.2272    3.6732   -1.6609 H   0  0  0  0  0  0  0  0  0  0  0  0
   -0.9534    4.2093   -0.1571 H   0  0  0  0  0  0  0  0  0  0  0  0
    0.5117    3.2200   -0.1394 H   0  0  0  0  0  0  0  0  0  0  0  0
   -2.4071    3.2541    1.4597 H   0  0  0  0  0  0  0  0  0  0  0  0
   -3.1565    2.3051    3.6354 H   0  0  0  0  0  0  0  0  0  0  0  0
   -3.6908    1.3142    2.2752 H   0  0  0  0  0  0  0  0  0  0  0  0
   -2.3314    0.7756    3.2841 H   0  0  0  0  0  0  0  0  0  0  0  0
    0.0410    3.5211    2.0573 H   0  0  0  0  0  0  0  0  0  0  0  0
   -0.1093    2.2083    3.2325 H   0  0  0  0  0  0  0  0  0  0  0  0
   -1.0201    3.6966    3.4451 H   0  0  0  0  0  0  0  0  0  0  0  0
  1  2  1  0
  2  3  1  0
  4  3  1  1
  4  5  1  0
  4  6  2  0
  4  7  1  0
  7  8  1  0
  8  9  1  0
  9 10  1  0
 10 11  1  0
 11 12  1  0
 11 13  1  0
 10 14  1  0
 14 15  1  0
 14 16  1  0
  1 17  1  0
  1 18  1  0
  1 19  1  0
  2 20  1  0
  2 21  1  0
  5 22  1  0
  5 23  1  0
  5 24  1  0
  8 25  1  0
  8 26  1  0
  9 27  1  0
  9 28  1  0
 10 29  1  6
 11 30  1  1
 12 31  1  0
 12 32  1  0
 12 33  1  0
 13 34  1  0
 13 35  1  0
 13 36  1  0
 14 37  1  6
 15 38  1  0
 15 39  1  0
 15 40  1  0
 16 41  1  0
 16 42  1  0
 16 43  1  0
M  CHG  1  10   1
M  END
$$$$
