VX
     RDKit          3D

 43 42  0  0  0  0  0  0  0  0999 V2000
    3.0012    2.4385    1.0158 C   0  0  0  0  0  0  0  0  0  0  0  0
    2.2419    1.1742    1.3618 C   0  0  0  0  0  0  0  0  0  0  0  0
    3.0114    0.0443    0.9897 O   0  0  0  0  0  0  0  0  0  0  0  0
    2.6771   -0.7228   -0.3879 P   0  0  2  0  0  0  0  0  0  0  0  0
    3.5483   -2.2551   -0.6610 C   0  0  0  0  0  0  0  0  0  0  0  0
    1.6974   -0.2198   -1.4160 O   0  0  0  0  0  0  0  0  0  0  0  0
    0.9404   -1.9022    0.6901 S   0  0  0  0  0  0  0  0  0  0  0  0
   -0.5588   -1.1232    0.0274 C   0  0  0  0  0  0  0  0  0  0  0  0
   -0.8613   -1.6308   -1.3912 C   0  0  0  0  0  0  0  0  0  0  0  0
   -1.8758   -0.7319   -2.1082 N   0  0  2  0  0  0  0  0  0  0  0  0
   -2.7868   -1.4628   -3.1090 C   0  0  2  0  0  0  0  0  0  0  0  0
   -3.9623   -2.0688   -2.3405 C   0  0  0  0  0  0  0  0  0  0  0  0
   -2.0552   -2.5287   -3.9232 C   0  0  0  0  0  0  0  0  0  0  0  0
   -1.2480    0.5843   -2.6146 C   0  0  2  0  0  0  0  0  0  0  0  0
   -2.3293    1.6629   -2.6898 C   0  0  0  0  0  0  0  0  0  0  0  0
   -0.5130    0.4229   -3.9379 C   0  0  0  0  0  0  0  0  0  0  0  0
    2.4395    3.3258    1.3209 H   0  0  0  0  0  0  0  0  0  0  0  0
    3.1924    2.4964   -0.0604 H   0  0  0  0  0  0  0  0  0  0  0  0
    3.9770    2.4501    1.5127 H   0  0  0  0  0  0  0  0  0  0  0  0
    2.0713    1.1236    2.4414 H   0  0  0  0  0  0  0  0  0  0  0  0
    1.2651    1.1598    0.8683 H   0  0  0  0  0  0  0  0  0  0  0  0
    2.9551   -2.9282   -1.2863 H   0  0  0  0  0  0  0  0  0  0  0  0
    4.5002   -2.0673   -1.1655 H   0  0  0  0  0  0  0  0  0  0  0  0
    3.7559   -2.7584    0.2875 H   0  0  0  0  0  0  0  0  0  0  0  0
   -0.4270   -0.0398    0.0695 H   0  0  0  0  0  0  0  0  0  0  0  0
   -1.3968   -1.3688    0.6886 H   0  0  0  0  0  0  0  0  0  0  0  0
   -1.3131   -2.6239   -1.3016 H   0  0  0  0  0  0  0  0  0  0  0  0
    0.0146   -1.7066   -2.0396 H   0  0  0  0  0  0  0  0  0  0  0  0
   -2.5146   -0.4238   -1.3645 H   0  0  0  0  0  0  0  0  0  0  0  0
   -3.1869   -0.7048   -3.7884 H   0  0  0  0  0  0  0  0  0  0  0  0
   -4.5193   -1.2949   -1.8011 H   0  0  0  0  0  0  0  0  0  0  0  0
   -3.6329   -2.8182   -1.6136 H   0  0  0  0  0  0  0  0  0  0  0  0
   -4.6597   -2.5561   -3.0302 H   0  0  0  0  0  0  0  0  0  0  0  0
   -2.7132   -2.9030   -4.7159 H   0  0  0  0  0  0  0  0  0  0  0  0
   -1.7710   -3.3946   -3.3170 H   0  0  0  0  0  0  0  0  0  0  0  0
   -1.1549   -2.1453   -4.4070 H   0  0  0  0  0  0  0  0  0  0  0  0
   -0.5331    0.8991   -1.8500 H   0  0  0  0  0  0  0  0  0  0  0  0
   -3.0735    1.4548   -3.4640 H   0  0  0  0  0  0  0  0  0  0  0  0
   -1.8782    2.6336   -2.9235 H   0  0  0  0  0  0  0  0  0  0  0  0
   -2.8517    1.7651   -1.7326 H   0  0  0  0  0  0  0  0  0  0  0  0
    0.2516   -0.3572   -3.8869 H   0  0  0  0  0  0  0  0  0  0  0  0
   -0.0015    1.3570   -4.1966 H   0  0  0  0  0  0  0  0  0  0  0  0
   -1.1938    0.1945   -4.7636 H   0  0  0  0  0  0  0  0  0  0  0  0
  1  2  1  0
  2  3  1  0
  4  3  1  1
  4  5  1  0
  4  6  2  0
  4  7  1  0
  7  8  1  0
  8  9  1  0
  9 10  1  0
 10 11  1  0
 11 12  1  0
 11 13  1  0
 10 14  1  0
 14 15  1  0
 14 16  1  0
  1 17  1  0
  1 18  1  0
  1 19  1  0
  2 20  1  0
  2 21  1  0
  5 22  1  0
  5 23  1  0
  5 24  1  0
  8 25  1  0
  8 26  1  0
  9 27  1  0
  9 28  1  0
 10 29  1  1
 11 30  1  6
 12 31  1  0
 12 32  1  0
 12 33  1  0
 13 34  1  0
 13 35  1  0
 13 36  1  0
 14 37  1  6
 15 38  1  0
 15 39  1  0
 15 40  1  0
 16 41  1  0
 16 42  1  0
 16 43  1  0
M  CHG  1  10   1
M  END
$$$$
