VX
     RDKit          3D

 43 42  0  0  0  0  0  0  0  0999 V2000
    4.7629   -0.0639    2.5638 C   0  0  0  0  0  0  0  0  0  0  0  0
    3.4012   -0.5880    2.1582 C   0  0  0  0  0  0  0  0  0  0  0  0
    2.9804    0.0809    0.9797 O   0  0  0  0  0  0  0  0  0  0  0  0
    2.6960   -0.7431   -0.3799 P   0  0  2  0  0  0  0  0  0  0  0  0
    3.5466   -2.2780   -0.6888 C   0  0  0  0  0  0  0  0  0  0  0  0
    1.7113   -0.2131   -1.3863 O   0  0  0  0  0  0  0  0  0  0  0  0
    0.9592   -1.9226    0.6982 S   0  0  0  0  0  0  0  0  0  0  0  0
   -0.2690   -0.6478    1.1242 C   0  0  0  0  0  0  0  0  0  0  0  0
   -0.6902    0.1939   -0.0868 C   0  0  0  0  0  0  0  0  0  0  0  0
   -1.9607    1.0286    0.1116 N   0  0  2  0  0  0  0  0  0  0  0  0
   -1.9385    1.9631    1.3254 C   0  0  2  0  0  0  0  0  0  0  0  0
   -2.5951    1.3550    2.5581 C   0  0  0  0  0  0  0  0  0  0  0  0
   -2.5959    3.2924    0.9478 C   0  0  0  0  0  0  0  0  0  0  0  0
   -3.2987    0.3775   -0.2595 C   0  0  1  0  0  0  0  0  0  0  0  0
   -3.4515    0.3783   -1.7827 C   0  0  0  0  0  0  0  0  0  0  0  0
   -3.4610   -1.0277    0.3038 C   0  0  0  0  0  0  0  0  0  0  0  0
    5.1050   -0.5403    3.4868 H   0  0  0  0  0  0  0  0  0  0  0  0
    5.5001   -0.2510    1.7764 H   0  0  0  0  0  0  0  0  0  0  0  0
    4.7295    1.0198    2.7171 H   0  0  0  0  0  0  0  0  0  0  0  0
    3.4348   -1.6716    2.0132 H   0  0  0  0  0  0  0  0  0  0  0  0
    2.6684   -0.3778    2.9434 H   0  0  0  0  0  0  0  0  0  0  0  0
    4.5108   -2.0890   -1.1689 H   0  0  0  0  0  0  0  0  0  0  0  0
    2.9535   -2.9108   -1.3555 H   0  0  0  0  0  0  0  0  0  0  0  0
    3.7255   -2.8378    0.2327 H   0  0  0  0  0  0  0  0  0  0  0  0
    0.1668   -0.0080    1.8978 H   0  0  0  0  0  0  0  0  0  0  0  0
   -1.1131   -1.1755    1.5681 H   0  0  0  0  0  0  0  0  0  0  0  0
   -0.8511   -0.4149   -0.9812 H   0  0  0  0  0  0  0  0  0  0  0  0
    0.0819    0.9378   -0.3054 H   0  0  0  0  0  0  0  0  0  0  0  0
   -1.8359    1.6986   -0.6600 H   0  0  0  0  0  0  0  0  0  0  0  0
   -0.8817    2.1642    1.5365 H   0  0  0  0  0  0  0  0  0  0  0  0
   -2.4879    2.0353    3.4109 H   0  0  0  0  0  0  0  0  0  0  0  0
   -2.1343    0.4089    2.8486 H   0  0  0  0  0  0  0  0  0  0  0  0
   -3.6675    1.1886    2.4173 H   0  0  0  0  0  0  0  0  0  0  0  0
   -3.6580    3.1748    0.7114 H   0  0  0  0  0  0  0  0  0  0  0  0
   -2.1025    3.7450    0.0809 H   0  0  0  0  0  0  0  0  0  0  0  0
   -2.5186    4.0040    1.7772 H   0  0  0  0  0  0  0  0  0  0  0  0
   -4.0844    1.0211    0.1481 H   0  0  0  0  0  0  0  0  0  0  0  0
   -2.6987   -0.2469   -2.2726 H   0  0  0  0  0  0  0  0  0  0  0  0
   -4.4368   -0.0078   -2.0664 H   0  0  0  0  0  0  0  0  0  0  0  0
   -3.3689    1.3928   -2.1875 H   0  0  0  0  0  0  0  0  0  0  0  0
   -3.3762   -1.0467    1.3926 H   0  0  0  0  0  0  0  0  0  0  0  0
   -4.4560   -1.4159    0.0574 H   0  0  0  0  0  0  0  0  0  0  0  0
   -2.7338   -1.7281   -0.1183 H   0  0  0  0  0  0  0  0  0  0  0  0
  1  2  1  0
  2  3  1  0
  4  3  1  1
  4  5  1  0
  4  6  2  0
  4  7  1  0
  7  8  1  0
  8  9  1  0
  9 10  1  0
 10 11  1  0
 11 12  1  0
 11 13  1  0
 10 14  1  0
 14 15  1  0
 14 16  1  0
  1 17  1  0
  1 18  1  0
  1 19  1  0
  2 20  1  0
  2 21  1  0
  5 22  1  0
  5 23  1  0
  5 24  1  0
  8 25  1  0
  8 26  1  0
  9 27  1  0
  9 28  1  0
 10 29  1  6
 11 30  1  1
 12 31  1  0
 12 32  1  0
 12 33  1  0
 13 34  1  0
 13 35  1  0
 13 36  1  0
 14 37  1  1
 15 38  1  0
 15 39  1  0
 15 40  1  0
 16 41  1  0
 16 42  1  0
 16 43  1  0
M  CHG  1  10   1
M  END
$$$$
