VX
     RDKit          3D

 43 42  0  0  0  0  0  0  0  0999 V2000
    3.9535    1.8161    2.2936 C   0  0  0  0  0  0  0  0  0  0  0  0
    3.9132    1.1482    0.9335 C   0  0  0  0  0  0  0  0  0  0  0  0
    2.9931    0.0681    0.9863 O   0  0  0  0  0  0  0  0  0  0  0  0
    2.6873   -0.7346   -0.3844 P   0  0  2  0  0  0  0  0  0  0  0  0
    3.5476   -2.2705   -0.6788 C   0  0  0  0  0  0  0  0  0  0  0  0
    1.7062   -0.2165   -1.3982 O   0  0  0  0  0  0  0  0  0  0  0  0
    0.9506   -1.9140    0.6937 S   0  0  0  0  0  0  0  0  0  0  0  0
   -0.2534   -0.6068    1.0447 C   0  0  0  0  0  0  0  0  0  0  0  0
   -1.6736   -1.1498    0.8600 C   0  0  0  0  0  0  0  0  0  0  0  0
   -2.7404   -0.0945    1.1902 N   0  0  2  0  0  0  0  0  0  0  0  0
   -2.8665    0.2003    2.6941 C   0  0  2  0  0  0  0  0  0  0  0  0
   -3.6706   -0.8591    3.4383 C   0  0  0  0  0  0  0  0  0  0  0  0
   -3.4381    1.6054    2.9013 C   0  0  0  0  0  0  0  0  0  0  0  0
   -4.0727   -0.2819    0.4370 C   0  0  1  0  0  0  0  0  0  0  0  0
   -3.9555    0.3886   -0.9347 C   0  0  0  0  0  0  0  0  0  0  0  0
   -4.4819   -1.7483    0.3024 C   0  0  0  0  0  0  0  0  0  0  0  0
    4.7020    2.6161    2.3126 H   0  0  0  0  0  0  0  0  0  0  0  0
    2.9750    2.2441    2.5414 H   0  0  0  0  0  0  0  0  0  0  0  0
    4.1906    1.0883    3.0776 H   0  0  0  0  0  0  0  0  0  0  0  0
    4.9058    0.7667    0.6741 H   0  0  0  0  0  0  0  0  0  0  0  0
    3.5960    1.8670    0.1714 H   0  0  0  0  0  0  0  0  0  0  0  0
    3.7855   -2.7614    0.2708 H   0  0  0  0  0  0  0  0  0  0  0  0
    4.4803   -2.0995   -1.2229 H   0  0  0  0  0  0  0  0  0  0  0  0
    2.9306   -2.9503   -1.2722 H   0  0  0  0  0  0  0  0  0  0  0  0
   -0.0725   -0.2520    2.0619 H   0  0  0  0  0  0  0  0  0  0  0  0
   -0.0914    0.2367    0.3685 H   0  0  0  0  0  0  0  0  0  0  0  0
   -1.8092   -1.4209   -0.1917 H   0  0  0  0  0  0  0  0  0  0  0  0
   -1.8745   -2.0218    1.4881 H   0  0  0  0  0  0  0  0  0  0  0  0
   -2.3565    0.7782    0.8010 H   0  0  0  0  0  0  0  0  0  0  0  0
   -1.8480    0.2072    3.0913 H   0  0  0  0  0  0  0  0  0  0  0  0
   -3.2506   -1.8599    3.3027 H   0  0  0  0  0  0  0  0  0  0  0  0
   -3.6622   -0.6463    4.5136 H   0  0  0  0  0  0  0  0  0  0  0  0
   -4.7192   -0.8747    3.1308 H   0  0  0  0  0  0  0  0  0  0  0  0
   -3.3301    1.8969    3.9544 H   0  0  0  0  0  0  0  0  0  0  0  0
   -2.9027    2.3451    2.2968 H   0  0  0  0  0  0  0  0  0  0  0  0
   -4.5040    1.6645    2.6550 H   0  0  0  0  0  0  0  0  0  0  0  0
   -4.8391    0.2513    1.0066 H   0  0  0  0  0  0  0  0  0  0  0  0
   -3.1789   -0.0750   -1.5520 H   0  0  0  0  0  0  0  0  0  0  0  0
   -3.7187    1.4547   -0.8333 H   0  0  0  0  0  0  0  0  0  0  0  0
   -4.9021    0.3137   -1.4794 H   0  0  0  0  0  0  0  0  0  0  0  0
   -4.4549   -2.2837    1.2530 H   0  0  0  0  0  0  0  0  0  0  0  0
   -3.8509   -2.2890   -0.4091 H   0  0  0  0  0  0  0  0  0  0  0  0
   -5.5088   -1.8110   -0.0779 H   0  0  0  0  0  0  0  0  0  0  0  0
  1  2  1  0
  2  3  1  0
  4  3  1  1
  4  5  1  0
  4  6  2  0
  4  7  1  0
  7  8  1  0
  8  9  1  0
  9 10  1  0
 10 11  1  0
 11 12  1  0
 11 13  1  0
 10 14  1  0
 14 15  1  0
 14 16  1  0
  1 17  1  0
  1 18  1  0
  1 19  1  0
  2 20  1  0
  2 21  1  0
  5 22  1  0
  5 23  1  0
  5 24  1  0
  8 25  1  0
  8 26  1  0
  9 27  1  0
  9 28  1  0
 10 29  1  6
 11 30  1  1
 12 31  1  0
 12 32  1  0
 12 33  1  0
 13 34  1  0
 13 35  1  0
 13 36  1  0
 14 37  1  1
 15 38  1  0
 15 39  1  0
 15 40  1  0
 16 41  1  0
 16 42  1  0
 16 43  1  0
M  CHG  1  10   1
M  END
$$$$
