VX
     RDKit          3D

 43 42  0  0  0  0  0  0  0  0999 V2000
    3.8803    1.8590    2.2782 C   0  0  0  0  0  0  0  0  0  0  0  0
    3.8957    1.1610    0.9342 C   0  0  0  0  0  0  0  0  0  0  0  0
    2.9927    0.0666    0.9840 O   0  0  0  0  0  0  0  0  0  0  0  0
    2.6880   -0.7350   -0.3838 P   0  0  2  0  0  0  0  0  0  0  0  0
    3.5465   -2.2681   -0.6781 C   0  0  0  0  0  0  0  0  0  0  0  0
    1.7070   -0.2168   -1.3972 O   0  0  0  0  0  0  0  0  0  0  0  0
    0.9513   -1.9145    0.6942 S   0  0  0  0  0  0  0  0  0  0  0  0
   -0.3559   -1.9764   -0.5718 C   0  0  0  0  0  0  0  0  0  0  0  0
   -1.1914   -0.6844   -0.6300 C   0  0  0  0  0  0  0  0  0  0  0  0
   -1.6228   -0.1923    0.7690 N   0  0  2  0  0  0  0  0  0  0  0  0
   -3.0079   -0.7095    1.2239 C   0  0  2  0  0  0  0  0  0  0  0  0
   -3.2616   -0.3449    2.6900 C   0  0  0  0  0  0  0  0  0  0  0  0
   -3.1153   -2.2268    1.0809 C   0  0  0  0  0  0  0  0  0  0  0  0
   -1.4590    1.3351    0.9421 C   0  0  1  0  0  0  0  0  0  0  0  0
    0.0151    1.7332    0.9332 C   0  0  0  0  0  0  0  0  0  0  0  0
   -2.2767    2.1123   -0.0857 C   0  0  0  0  0  0  0  0  0  0  0  0
    4.5657    2.7110    2.2838 H   0  0  0  0  0  0  0  0  0  0  0  0
    2.8722    2.2144    2.5161 H   0  0  0  0  0  0  0  0  0  0  0  0
    4.1700    1.1668    3.0758 H   0  0  0  0  0  0  0  0  0  0  0  0
    4.9014    0.7928    0.7127 H   0  0  0  0  0  0  0  0  0  0  0  0
    3.5889    1.8572    0.1477 H   0  0  0  0  0  0  0  0  0  0  0  0
    3.7832   -2.7677    0.2656 H   0  0  0  0  0  0  0  0  0  0  0  0
    2.9282   -2.9425   -1.2776 H   0  0  0  0  0  0  0  0  0  0  0  0
    4.4804   -2.0965   -1.2198 H   0  0  0  0  0  0  0  0  0  0  0  0
   -0.9807   -2.8428   -0.3490 H   0  0  0  0  0  0  0  0  0  0  0  0
    0.0949   -2.1715   -1.5502 H   0  0  0  0  0  0  0  0  0  0  0  0
   -0.6044    0.1044   -1.1024 H   0  0  0  0  0  0  0  0  0  0  0  0
   -2.0978   -0.8132   -1.2311 H   0  0  0  0  0  0  0  0  0  0  0  0
   -0.9342   -0.6114    1.4163 H   0  0  0  0  0  0  0  0  0  0  0  0
   -3.7549   -0.2352    0.5795 H   0  0  0  0  0  0  0  0  0  0  0  0
   -4.1407   -0.8729    3.0768 H   0  0  0  0  0  0  0  0  0  0  0  0
   -2.4079   -0.6077    3.3237 H   0  0  0  0  0  0  0  0  0  0  0  0
   -3.4761    0.7205    2.8133 H   0  0  0  0  0  0  0  0  0  0  0  0
   -4.0613   -2.5870    1.5018 H   0  0  0  0  0  0  0  0  0  0  0  0
   -3.1185   -2.5340    0.0316 H   0  0  0  0  0  0  0  0  0  0  0  0
   -2.3052   -2.7413    1.6076 H   0  0  0  0  0  0  0  0  0  0  0  0
   -1.8228    1.5764    1.9428 H   0  0  0  0  0  0  0  0  0  0  0  0
    0.5895    1.1390    1.6500 H   0  0  0  0  0  0  0  0  0  0  0  0
    0.1191    2.7839    1.2277 H   0  0  0  0  0  0  0  0  0  0  0  0
    0.4727    1.6372   -0.0535 H   0  0  0  0  0  0  0  0  0  0  0  0
   -1.9414    1.9302   -1.1109 H   0  0  0  0  0  0  0  0  0  0  0  0
   -2.1835    3.1886    0.0981 H   0  0  0  0  0  0  0  0  0  0  0  0
   -3.3410    1.8681   -0.0260 H   0  0  0  0  0  0  0  0  0  0  0  0
  1  2  1  0
  2  3  1  0
  4  3  1  1
  4  5  1  0
  4  6  2  0
  4  7  1  0
  7  8  1  0
  8  9  1  0
  9 10  1  0
 10 11  1  0
 11 12  1  0
 11 13  1  0
 10 14  1  0
 14 15  1  0
 14 16  1  0
  1 17  1  0
  1 18  1  0
  1 19  1  0
  2 20  1  0
  2 21  1  0
  5 22  1  0
  5 23  1  0
  5 24  1  0
  8 25  1  0
  8 26  1  0
  9 27  1  0
  9 28  1  0
 10 29  1  1
 11 30  1  6
 12 31  1  0
 12 32  1  0
 12 33  1  0
 13 34  1  0
 13 35  1  0
 13 36  1  0
 14 37  1  1
 15 38  1  0
 15 39  1  0
 15 40  1  0
 16 41  1  0
 16 42  1  0
 16 43  1  0
M  CHG  1  10   1
M  END
$$$$
