VX
     RDKit          3D

 43 42  0  0  0  0  0  0  0  0999 V2000
    3.2051    0.2511    3.3449 C   0  0  0  0  0  0  0  0  0  0  0  0
    3.5277   -0.5679    2.1121 C   0  0  0  0  0  0  0  0  0  0  0  0
    2.9770    0.0850    0.9788 O   0  0  0  0  0  0  0  0  0  0  0  0
    2.6986   -0.7460   -0.3787 P   0  0  2  0  0  0  0  0  0  0  0  0
    3.5463   -2.2803   -0.6918 C   0  0  0  0  0  0  0  0  0  0  0  0
    1.7123   -0.2121   -1.3835 O   0  0  0  0  0  0  0  0  0  0  0  0
    0.9619   -1.9254    0.6994 S   0  0  0  0  0  0  0  0  0  0  0  0
   -0.5363   -1.0944    0.0946 C   0  0  0  0  0  0  0  0  0  0  0  0
   -0.5665    0.3901    0.4905 C   0  0  0  0  0  0  0  0  0  0  0  0
   -1.6989    1.1340   -0.2620 N   0  0  1  0  0  0  0  0  0  0  0  0
   -2.3623    2.2322    0.5972 C   0  0  2  0  0  0  0  0  0  0  0  0
   -2.9849    1.6049    1.8556 C   0  0  0  0  0  0  0  0  0  0  0  0
   -3.4913    2.9335   -0.1583 C   0  0  0  0  0  0  0  0  0  0  0  0
   -1.1688    1.5279   -1.6667 C   0  0  1  0  0  0  0  0  0  0  0  0
   -2.2791    1.4637   -2.7119 C   0  0  0  0  0  0  0  0  0  0  0  0
   -0.4039    2.8466   -1.6580 C   0  0  0  0  0  0  0  0  0  0  0  0
    2.1215    0.3549    3.4648 H   0  0  0  0  0  0  0  0  0  0  0  0
    3.6145    1.2632    3.2551 H   0  0  0  0  0  0  0  0  0  0  0  0
    3.6167   -0.2175    4.2433 H   0  0  0  0  0  0  0  0  0  0  0  0
    3.1125   -1.5747    2.2133 H   0  0  0  0  0  0  0  0  0  0  0  0
    4.6116   -0.6437    1.9838 H   0  0  0  0  0  0  0  0  0  0  0  0
    3.7159   -2.8416    0.2311 H   0  0  0  0  0  0  0  0  0  0  0  0
    2.9553   -2.9095   -1.3638 H   0  0  0  0  0  0  0  0  0  0  0  0
    4.5144   -2.0929   -1.1646 H   0  0  0  0  0  0  0  0  0  0  0  0
   -0.5836   -1.2314   -0.9891 H   0  0  0  0  0  0  0  0  0  0  0  0
   -1.4064   -1.6052    0.5202 H   0  0  0  0  0  0  0  0  0  0  0  0
    0.3594    0.9314    0.2861 H   0  0  0  0  0  0  0  0  0  0  0  0
   -0.7454    0.4629    1.5630 H   0  0  0  0  0  0  0  0  0  0  0  0
   -2.4393    0.4396   -0.4246 H   0  0  0  0  0  0  0  0  0  0  0  0
   -1.5786    2.9443    0.8770 H   0  0  0  0  0  0  0  0  0  0  0  0
   -2.2339    1.3022    2.5890 H   0  0  0  0  0  0  0  0  0  0  0  0
   -3.5988    0.7323    1.6074 H   0  0  0  0  0  0  0  0  0  0  0  0
   -3.6259    2.3280    2.3737 H   0  0  0  0  0  0  0  0  0  0  0  0
   -4.0526    3.5942    0.5129 H   0  0  0  0  0  0  0  0  0  0  0  0
   -3.1210    3.5772   -0.9571 H   0  0  0  0  0  0  0  0  0  0  0  0
   -4.2016    2.2143   -0.5801 H   0  0  0  0  0  0  0  0  0  0  0  0
   -0.4657    0.7389   -1.9468 H   0  0  0  0  0  0  0  0  0  0  0  0
   -2.8631    0.5422   -2.6164 H   0  0  0  0  0  0  0  0  0  0  0  0
   -2.9626    2.3126   -2.6706 H   0  0  0  0  0  0  0  0  0  0  0  0
   -1.8410    1.4685   -3.7167 H   0  0  0  0  0  0  0  0  0  0  0  0
   -1.0487    3.7115   -1.4879 H   0  0  0  0  0  0  0  0  0  0  0  0
    0.3812    2.8560   -0.8958 H   0  0  0  0  0  0  0  0  0  0  0  0
    0.0832    2.9992   -2.6275 H   0  0  0  0  0  0  0  0  0  0  0  0
  1  2  1  0
  2  3  1  0
  4  3  1  1
  4  5  1  0
  4  6  2  0
  4  7  1  0
  7  8  1  0
  8  9  1  0
  9 10  1  0
 10 11  1  0
 11 12  1  0
 11 13  1  0
 10 14  1  0
 14 15  1  0
 14 16  1  0
  1 17  1  0
  1 18  1  0
  1 19  1  0
  2 20  1  0
  2 21  1  0
  5 22  1  0
  5 23  1  0
  5 24  1  0
  8 25  1  0
  8 26  1  0
  9 27  1  0
  9 28  1  0
 10 29  1  1
 11 30  1  1
 12 31  1  0
 12 32  1  0
 12 33  1  0
 13 34  1  0
 13 35  1  0
 13 36  1  0
 14 37  1  6
 15 38  1  0
 15 39  1  0
 15 40  1  0
 16 41  1  0
 16 42  1  0
 16 43  1  0
M  CHG  1  10   1
M  END
$$$$
