VX
     RDKit          3D

 43 42  0  0  0  0  0  0  0  0999 V2000
    3.7729    1.9757    2.1816 C   0  0  0  0  0  0  0  0  0  0  0  0
    3.9504    1.1150    0.9483 C   0  0  0  0  0  0  0  0  0  0  0  0
    2.9919    0.0686    0.9849 O   0  0  0  0  0  0  0  0  0  0  0  0
    2.6880   -0.7354   -0.3842 P   0  0  2  0  0  0  0  0  0  0  0  0
    3.5467   -2.2697   -0.6795 C   0  0  0  0  0  0  0  0  0  0  0  0
    1.7076   -0.2169   -1.3964 O   0  0  0  0  0  0  0  0  0  0  0  0
    0.9513   -1.9148    0.6939 S   0  0  0  0  0  0  0  0  0  0  0  0
   -0.3018   -0.6191    0.8953 C   0  0  0  0  0  0  0  0  0  0  0  0
   -1.6335   -1.2290    1.3269 C   0  0  0  0  0  0  0  0  0  0  0  0
   -2.7822   -0.2064    1.2880 N   0  0  2  0  0  0  0  0  0  0  0  0
   -2.7644    0.9202    2.3373 C   0  0  2  0  0  0  0  0  0  0  0  0
   -2.0972    2.1586    1.7417 C   0  0  0  0  0  0  0  0  0  0  0  0
   -2.1331    0.5047    3.6614 C   0  0  0  0  0  0  0  0  0  0  0  0
   -4.1418   -0.9127    1.1196 C   0  0  2  0  0  0  0  0  0  0  0  0
   -5.1687    0.0539    0.5307 C   0  0  0  0  0  0  0  0  0  0  0  0
   -4.6166   -1.5537    2.4167 C   0  0  0  0  0  0  0  0  0  0  0  0
    2.7645    2.4014    2.2107 H   0  0  0  0  0  0  0  0  0  0  0  0
    4.4997    2.7921    2.1964 H   0  0  0  0  0  0  0  0  0  0  0  0
    3.8909    1.3796    3.0927 H   0  0  0  0  0  0  0  0  0  0  0  0
    3.8141    1.7211    0.0480 H   0  0  0  0  0  0  0  0  0  0  0  0
    4.9532    0.6788    0.9341 H   0  0  0  0  0  0  0  0  0  0  0  0
    4.4841   -2.0967   -1.2145 H   0  0  0  0  0  0  0  0  0  0  0  0
    2.9285   -2.9372   -1.2871 H   0  0  0  0  0  0  0  0  0  0  0  0
    3.7763   -2.7720    0.2639 H   0  0  0  0  0  0  0  0  0  0  0  0
    0.0760    0.0903    1.6332 H   0  0  0  0  0  0  0  0  0  0  0  0
   -0.4207   -0.0931   -0.0564 H   0  0  0  0  0  0  0  0  0  0  0  0
   -1.9087   -2.0212    0.6202 H   0  0  0  0  0  0  0  0  0  0  0  0
   -1.5974   -1.6660    2.3291 H   0  0  0  0  0  0  0  0  0  0  0  0
   -2.6602    0.2621    0.3798 H   0  0  0  0  0  0  0  0  0  0  0  0
   -3.8069    1.1857    2.5337 H   0  0  0  0  0  0  0  0  0  0  0  0
   -1.0371    2.0043    1.5298 H   0  0  0  0  0  0  0  0  0  0  0  0
   -2.5899    2.4595    0.8104 H   0  0  0  0  0  0  0  0  0  0  0  0
   -2.1727    3.0022    2.4375 H   0  0  0  0  0  0  0  0  0  0  0  0
   -2.2653    1.2992    4.4043 H   0  0  0  0  0  0  0  0  0  0  0  0
   -1.0574    0.3295    3.5764 H   0  0  0  0  0  0  0  0  0  0  0  0
   -2.5989   -0.3963    4.0697 H   0  0  0  0  0  0  0  0  0  0  0  0
   -3.9796   -1.6975    0.3711 H   0  0  0  0  0  0  0  0  0  0  0  0
   -4.7814    0.5433   -0.3696 H   0  0  0  0  0  0  0  0  0  0  0  0
   -6.0751   -0.4914    0.2455 H   0  0  0  0  0  0  0  0  0  0  0  0
   -5.4709    0.8310    1.2384 H   0  0  0  0  0  0  0  0  0  0  0  0
   -3.8701   -2.2426    2.8230 H   0  0  0  0  0  0  0  0  0  0  0  0
   -5.5293   -2.1313    2.2356 H   0  0  0  0  0  0  0  0  0  0  0  0
   -4.8535   -0.8107    3.1837 H   0  0  0  0  0  0  0  0  0  0  0  0
  1  2  1  0
  2  3  1  0
  4  3  1  1
  4  5  1  0
  4  6  2  0
  4  7  1  0
  7  8  1  0
  8  9  1  0
  9 10  1  0
 10 11  1  0
 11 12  1  0
 11 13  1  0
 10 14  1  0
 14 15  1  0
 14 16  1  0
  1 17  1  0
  1 18  1  0
  1 19  1  0
  2 20  1  0
  2 21  1  0
  5 22  1  0
  5 23  1  0
  5 24  1  0
  8 25  1  0
  8 26  1  0
  9 27  1  0
  9 28  1  0
 10 29  1  6
 11 30  1  1
 12 31  1  0
 12 32  1  0
 12 33  1  0
 13 34  1  0
 13 35  1  0
 13 36  1  0
 14 37  1  1
 15 38  1  0
 15 39  1  0
 15 40  1  0
 16 41  1  0
 16 42  1  0
 16 43  1  0
M  CHG  1  10   1
M  END
$$$$
