VX
     RDKit          3D

 43 42  0  0  0  0  0  0  0  0999 V2000
    3.7568    1.9892    2.1739 C   0  0  0  0  0  0  0  0  0  0  0  0
    3.9513    1.1153    0.9510 C   0  0  0  0  0  0  0  0  0  0  0  0
    2.9857    0.0751    0.9820 O   0  0  0  0  0  0  0  0  0  0  0  0
    2.6927   -0.7400   -0.3818 P   0  0  2  0  0  0  0  0  0  0  0  0
    3.5462   -2.2734   -0.6844 C   0  0  0  0  0  0  0  0  0  0  0  0
    1.7097   -0.2150   -1.3910 O   0  0  0  0  0  0  0  0  0  0  0  0
    0.9559   -1.9195    0.6963 S   0  0  0  0  0  0  0  0  0  0  0  0
   -0.2868   -0.6249    0.9735 C   0  0  0  0  0  0  0  0  0  0  0  0
   -1.1252   -0.3861   -0.2899 C   0  0  0  0  0  0  0  0  0  0  0  0
   -2.0329    0.8596   -0.2339 N   0  0  2  0  0  0  0  0  0  0  0  0
   -1.3773    2.1575   -0.7493 C   0  0  1  0  0  0  0  0  0  0  0  0
   -0.1980    2.5989    0.1026 C   0  0  0  0  0  0  0  0  0  0  0  0
   -1.0140    2.0319   -2.2294 C   0  0  0  0  0  0  0  0  0  0  0  0
   -2.8617    0.9847    1.0620 C   0  0  2  0  0  0  0  0  0  0  0  0
   -3.7429   -0.2596    1.2241 C   0  0  0  0  0  0  0  0  0  0  0  0
   -3.7689    2.2170    1.0307 C   0  0  0  0  0  0  0  0  0  0  0  0
    2.7479    2.4175    2.1839 H   0  0  0  0  0  0  0  0  0  0  0  0
    4.4862    2.8039    2.1912 H   0  0  0  0  0  0  0  0  0  0  0  0
    3.8625    1.4001    3.0918 H   0  0  0  0  0  0  0  0  0  0  0  0
    3.8310    1.7135    0.0417 H   0  0  0  0  0  0  0  0  0  0  0  0
    4.9527    0.6741    0.9564 H   0  0  0  0  0  0  0  0  0  0  0  0
    4.4851   -2.1000   -1.2167 H   0  0  0  0  0  0  0  0  0  0  0  0
    3.7736   -2.7832    0.2560 H   0  0  0  0  0  0  0  0  0  0  0  0
    2.9305   -2.9402   -1.2948 H   0  0  0  0  0  0  0  0  0  0  0  0
   -0.9208   -0.9637    1.7974 H   0  0  0  0  0  0  0  0  0  0  0  0
    0.2296    0.2724    1.3154 H   0  0  0  0  0  0  0  0  0  0  0  0
   -0.5222   -0.2996   -1.1921 H   0  0  0  0  0  0  0  0  0  0  0  0
   -1.7995   -1.2342   -0.4582 H   0  0  0  0  0  0  0  0  0  0  0  0
   -2.7400    0.6671   -0.9565 H   0  0  0  0  0  0  0  0  0  0  0  0
   -2.1521    2.9264   -0.7047 H   0  0  0  0  0  0  0  0  0  0  0  0
   -0.4530    2.6308    1.1663 H   0  0  0  0  0  0  0  0  0  0  0  0
    0.6717    1.9518   -0.0352 H   0  0  0  0  0  0  0  0  0  0  0  0
    0.1132    3.6090   -0.1870 H   0  0  0  0  0  0  0  0  0  0  0  0
   -0.7715    3.0193   -2.6390 H   0  0  0  0  0  0  0  0  0  0  0  0
   -0.1401    1.3983   -2.3978 H   0  0  0  0  0  0  0  0  0  0  0  0
   -1.8494    1.6310   -2.8123 H   0  0  0  0  0  0  0  0  0  0  0  0
   -2.1570    1.0715    1.8949 H   0  0  0  0  0  0  0  0  0  0  0  0
   -4.3888   -0.4081    0.3510 H   0  0  0  0  0  0  0  0  0  0  0  0
   -4.3884   -0.1616    2.1045 H   0  0  0  0  0  0  0  0  0  0  0  0
   -3.1560   -1.1704    1.3692 H   0  0  0  0  0  0  0  0  0  0  0  0
   -3.1946    3.1442    1.1242 H   0  0  0  0  0  0  0  0  0  0  0  0
   -4.3618    2.2594    0.1105 H   0  0  0  0  0  0  0  0  0  0  0  0
   -4.4661    2.2047    1.8764 H   0  0  0  0  0  0  0  0  0  0  0  0
  1  2  1  0
  2  3  1  0
  4  3  1  1
  4  5  1  0
  4  6  2  0
  4  7  1  0
  7  8  1  0
  8  9  1  0
  9 10  1  0
 10 11  1  0
 11 12  1  0
 11 13  1  0
 10 14  1  0
 14 15  1  0
 14 16  1  0
  1 17  1  0
  1 18  1  0
  1 19  1  0
  2 20  1  0
  2 21  1  0
  5 22  1  0
  5 23  1  0
  5 24  1  0
  8 25  1  0
  8 26  1  0
  9 27  1  0
  9 28  1  0
 10 29  1  6
 11 30  1  1
 12 31  1  0
 12 32  1  0
 12 33  1  0
 13 34  1  0
 13 35  1  0
 13 36  1  0
 14 37  1  6
 15 38  1  0
 15 39  1  0
 15 40  1  0
 16 41  1  0
 16 42  1  0
 16 43  1  0
M  CHG  1  10   1
M  END
$$$$
