VX
     RDKit          3D

 43 42  0  0  0  0  0  0  0  0999 V2000
    3.9238    1.8359    2.2882 C   0  0  0  0  0  0  0  0  0  0  0  0
    3.9201    1.1444    0.9401 C   0  0  0  0  0  0  0  0  0  0  0  0
    2.9828    0.0787    0.9812 O   0  0  0  0  0  0  0  0  0  0  0  0
    2.6951   -0.7425   -0.3806 P   0  0  2  0  0  0  0  0  0  0  0  0
    3.5461   -2.2756   -0.6870 C   0  0  0  0  0  0  0  0  0  0  0  0
    1.7103   -0.2139   -1.3888 O   0  0  0  0  0  0  0  0  0  0  0  0
    0.9584   -1.9220    0.6975 S   0  0  0  0  0  0  0  0  0  0  0  0
   -0.5401   -1.0781    0.1208 C   0  0  0  0  0  0  0  0  0  0  0  0
   -0.5613    0.3959    0.5520 C   0  0  0  0  0  0  0  0  0  0  0  0
   -1.7005    1.1588   -0.1703 N   0  0  1  0  0  0  0  0  0  0  0  0
   -2.3554    2.2373    0.7205 C   0  0  1  0  0  0  0  0  0  0  0  0
   -3.4974    2.9476   -0.0065 C   0  0  0  0  0  0  0  0  0  0  0  0
   -2.9558    1.5851    1.9771 C   0  0  0  0  0  0  0  0  0  0  0  0
   -1.1873    1.5824   -1.5710 C   0  0  1  0  0  0  0  0  0  0  0  0
   -2.3079    1.5413   -2.6058 C   0  0  0  0  0  0  0  0  0  0  0  0
   -0.4235    2.9019   -1.5428 C   0  0  0  0  0  0  0  0  0  0  0  0
    2.9247    2.2127    2.5310 H   0  0  0  0  0  0  0  0  0  0  0  0
    4.2007    1.1327    3.0812 H   0  0  0  0  0  0  0  0  0  0  0  0
    4.6273    2.6725    2.2950 H   0  0  0  0  0  0  0  0  0  0  0  0
    4.9154    0.7482    0.7195 H   0  0  0  0  0  0  0  0  0  0  0  0
    3.6354    1.8526    0.1559 H   0  0  0  0  0  0  0  0  0  0  0  0
    4.4719   -2.1073   -1.2435 H   0  0  0  0  0  0  0  0  0  0  0  0
    3.7959   -2.7759    0.2529 H   0  0  0  0  0  0  0  0  0  0  0  0
    2.9182   -2.9495   -1.2767 H   0  0  0  0  0  0  0  0  0  0  0  0
   -0.5945   -1.1898   -0.9653 H   0  0  0  0  0  0  0  0  0  0  0  0
   -1.4092   -1.5956    0.5397 H   0  0  0  0  0  0  0  0  0  0  0  0
    0.3642    0.9379    0.3454 H   0  0  0  0  0  0  0  0  0  0  0  0
   -0.7270    0.4454    1.6277 H   0  0  0  0  0  0  0  0  0  0  0  0
   -2.4435    0.4686   -0.3395 H   0  0  0  0  0  0  0  0  0  0  0  0
   -1.5704    2.9476    1.0011 H   0  0  0  0  0  0  0  0  0  0  0  0
   -4.0587    3.5863    0.6858 H   0  0  0  0  0  0  0  0  0  0  0  0
   -3.1376    3.6147   -0.7910 H   0  0  0  0  0  0  0  0  0  0  0  0
   -4.2049    2.2341   -0.4418 H   0  0  0  0  0  0  0  0  0  0  0  0
   -2.1917    1.2785    2.6959 H   0  0  0  0  0  0  0  0  0  0  0  0
   -3.5650    0.7105    1.7237 H   0  0  0  0  0  0  0  0  0  0  0  0
   -3.5963    2.2936    2.5147 H   0  0  0  0  0  0  0  0  0  0  0  0
   -0.4847    0.8013   -1.8753 H   0  0  0  0  0  0  0  0  0  0  0  0
   -2.8932    0.6194   -2.5229 H   0  0  0  0  0  0  0  0  0  0  0  0
   -1.8785    1.5652   -3.6142 H   0  0  0  0  0  0  0  0  0  0  0  0
   -2.9878    2.3915   -2.5403 H   0  0  0  0  0  0  0  0  0  0  0  0
   -1.0659    3.7620   -1.3431 H   0  0  0  0  0  0  0  0  0  0  0  0
    0.3727    2.8941   -0.7917 H   0  0  0  0  0  0  0  0  0  0  0  0
    0.0498    3.0773   -2.5157 H   0  0  0  0  0  0  0  0  0  0  0  0
  1  2  1  0
  2  3  1  0
  4  3  1  1
  4  5  1  0
  4  6  2  0
  4  7  1  0
  7  8  1  0
  8  9  1  0
  9 10  1  0
 10 11  1  0
 11 12  1  0
 11 13  1  0
 10 14  1  0
 14 15  1  0
 14 16  1  0
  1 17  1  0
  1 18  1  0
  1 19  1  0
  2 20  1  0
  2 21  1  0
  5 22  1  0
  5 23  1  0
  5 24  1  0
  8 25  1  0
  8 26  1  0
  9 27  1  0
  9 28  1  0
 10 29  1  1
 11 30  1  6
 12 31  1  0
 12 32  1  0
 12 33  1  0
 13 34  1  0
 13 35  1  0
 13 36  1  0
 14 37  1  6
 15 38  1  0
 15 39  1  0
 15 40  1  0
 16 41  1  0
 16 42  1  0
 16 43  1  0
M  CHG  1  10   1
M  END
$$$$
