VX
     RDKit          3D

 43 42  0  0  0  0  0  0  0  0999 V2000
    3.9944    1.7786    2.3082 C   0  0  0  0  0  0  0  0  0  0  0  0
    3.8522    1.1959    0.9174 C   0  0  0  0  0  0  0  0  0  0  0  0
    2.9931    0.0674    0.9855 O   0  0  0  0  0  0  0  0  0  0  0  0
    2.6876   -0.7349   -0.3845 P   0  0  2  0  0  0  0  0  0  0  0  0
    3.5466   -2.2687   -0.6785 C   0  0  0  0  0  0  0  0  0  0  0  0
    1.7069   -0.2171   -1.3978 O   0  0  0  0  0  0  0  0  0  0  0  0
    0.9508   -1.9144    0.6936 S   0  0  0  0  0  0  0  0  0  0  0  0
   -0.3700   -0.6724    0.7184 C   0  0  0  0  0  0  0  0  0  0  0  0
   -1.6401   -1.2492    1.3405 C   0  0  0  0  0  0  0  0  0  0  0  0
   -2.8446   -0.3132    1.1622 N   0  0  1  0  0  0  0  0  0  0  0  0
   -4.2107   -1.0276    1.2110 C   0  0  1  0  0  0  0  0  0  0  0  0
   -4.3826   -1.9266   -0.0138 C   0  0  0  0  0  0  0  0  0  0  0  0
   -4.4076   -1.7886    2.5154 C   0  0  0  0  0  0  0  0  0  0  0  0
   -2.8496    0.9966    1.9791 C   0  0  2  0  0  0  0  0  0  0  0  0
   -2.2934    2.1314    1.1203 C   0  0  0  0  0  0  0  0  0  0  0  0
   -2.1287    0.8838    3.3178 C   0  0  0  0  0  0  0  0  0  0  0  0
    3.0169    2.0715    2.7054 H   0  0  0  0  0  0  0  0  0  0  0  0
    4.4082    1.0350    2.9972 H   0  0  0  0  0  0  0  0  0  0  0  0
    4.6489    2.6547    2.2995 H   0  0  0  0  0  0  0  0  0  0  0  0
    4.8311    0.8920    0.5361 H   0  0  0  0  0  0  0  0  0  0  0  0
    3.4214    1.9407    0.2411 H   0  0  0  0  0  0  0  0  0  0  0  0
    2.9303   -2.9411   -1.2821 H   0  0  0  0  0  0  0  0  0  0  0  0
    3.7783   -2.7705    0.2653 H   0  0  0  0  0  0  0  0  0  0  0  0
    4.4833   -2.0977   -1.2154 H   0  0  0  0  0  0  0  0  0  0  0  0
   -0.0026    0.1879    1.2809 H   0  0  0  0  0  0  0  0  0  0  0  0
   -0.5647   -0.3532   -0.3100 H   0  0  0  0  0  0  0  0  0  0  0  0
   -1.8927   -2.1830    0.8317 H   0  0  0  0  0  0  0  0  0  0  0  0
   -1.5279   -1.4652    2.4071 H   0  0  0  0  0  0  0  0  0  0  0  0
   -2.7880   -0.0075    0.1810 H   0  0  0  0  0  0  0  0  0  0  0  0
   -4.9662   -0.2369    1.1310 H   0  0  0  0  0  0  0  0  0  0  0  0
   -5.4203   -2.2727   -0.0797 H   0  0  0  0  0  0  0  0  0  0  0  0
   -3.7519   -2.8192    0.0277 H   0  0  0  0  0  0  0  0  0  0  0  0
   -4.1571   -1.3862   -0.9391 H   0  0  0  0  0  0  0  0  0  0  0  0
   -5.3951   -2.2636    2.5286 H   0  0  0  0  0  0  0  0  0  0  0  0
   -3.6646   -2.5809    2.6489 H   0  0  0  0  0  0  0  0  0  0  0  0
   -4.3624   -1.1215    3.3801 H   0  0  0  0  0  0  0  0  0  0  0  0
   -3.9003    1.2342    2.1810 H   0  0  0  0  0  0  0  0  0  0  0  0
   -1.2381    1.9921    0.8746 H   0  0  0  0  0  0  0  0  0  0  0  0
   -2.8514    2.2235    0.1822 H   0  0  0  0  0  0  0  0  0  0  0  0
   -2.3834    3.0864    1.6497 H   0  0  0  0  0  0  0  0  0  0  0  0
   -1.0483    0.7620    3.2030 H   0  0  0  0  0  0  0  0  0  0  0  0
   -2.5080    0.0532    3.9187 H   0  0  0  0  0  0  0  0  0  0  0  0
   -2.2828    1.7992    3.9006 H   0  0  0  0  0  0  0  0  0  0  0  0
  1  2  1  0
  2  3  1  0
  4  3  1  1
  4  5  1  0
  4  6  2  0
  4  7  1  0
  7  8  1  0
  8  9  1  0
  9 10  1  0
 10 11  1  0
 11 12  1  0
 11 13  1  0
 10 14  1  0
 14 15  1  0
 14 16  1  0
  1 17  1  0
  1 18  1  0
  1 19  1  0
  2 20  1  0
  2 21  1  0
  5 22  1  0
  5 23  1  0
  5 24  1  0
  8 25  1  0
  8 26  1  0
  9 27  1  0
  9 28  1  0
 10 29  1  1
 11 30  1  1
 12 31  1  0
 12 32  1  0
 12 33  1  0
 13 34  1  0
 13 35  1  0
 13 36  1  0
 14 37  1  6
 15 38  1  0
 15 39  1  0
 15 40  1  0
 16 41  1  0
 16 42  1  0
 16 43  1  0
M  CHG  1  10   1
M  END
$$$$
