VX
     RDKit          3D

 43 42  0  0  0  0  0  0  0  0999 V2000
    3.5574    2.2227    1.8575 C   0  0  0  0  0  0  0  0  0  0  0  0
    3.9949    1.0767    0.9685 C   0  0  0  0  0  0  0  0  0  0  0  0
    2.9794    0.0832    0.9807 O   0  0  0  0  0  0  0  0  0  0  0  0
    2.6966   -0.7447   -0.3805 P   0  0  2  0  0  0  0  0  0  0  0  0
    3.5454   -2.2779   -0.6905 C   0  0  0  0  0  0  0  0  0  0  0  0
    1.7128   -0.2141   -1.3849 O   0  0  0  0  0  0  0  0  0  0  0  0
    0.9599   -1.9241    0.6976 S   0  0  0  0  0  0  0  0  0  0  0  0
   -0.5197   -0.9128    0.3883 C   0  0  0  0  0  0  0  0  0  0  0  0
   -0.3310    0.5253    0.8806 C   0  0  0  0  0  0  0  0  0  0  0  0
   -1.5442    1.4437    0.7053 N   0  0  1  0  0  0  0  0  0  0  0  0
   -1.6645    2.2064   -0.6226 C   0  0  1  0  0  0  0  0  0  0  0  0
   -0.6524    3.3539   -0.6379 C   0  0  0  0  0  0  0  0  0  0  0  0
   -1.5025    1.3237   -1.8503 C   0  0  0  0  0  0  0  0  0  0  0  0
   -2.8407    0.9346    1.3463 C   0  0  2  0  0  0  0  0  0  0  0  0
   -3.7453    0.1992    0.3657 C   0  0  0  0  0  0  0  0  0  0  0  0
   -3.5734    2.1106    1.9966 C   0  0  0  0  0  0  0  0  0  0  0  0
    2.6327    2.6710    1.4765 H   0  0  0  0  0  0  0  0  0  0  0  0
    3.3467    1.8688    2.8724 H   0  0  0  0  0  0  0  0  0  0  0  0
    4.3284    2.9968    1.9069 H   0  0  0  0  0  0  0  0  0  0  0  0
    4.9191    0.6299    1.3483 H   0  0  0  0  0  0  0  0  0  0  0  0
    4.1723    1.4375   -0.0502 H   0  0  0  0  0  0  0  0  0  0  0  0
    3.7496   -2.8058    0.2449 H   0  0  0  0  0  0  0  0  0  0  0  0
    4.4974   -2.1033   -1.1989 H   0  0  0  0  0  0  0  0  0  0  0  0
    2.9384   -2.9294   -1.3256 H   0  0  0  0  0  0  0  0  0  0  0  0
   -1.3411   -1.4000    0.9199 H   0  0  0  0  0  0  0  0  0  0  0  0
   -0.7372   -0.9580   -0.6789 H   0  0  0  0  0  0  0  0  0  0  0  0
    0.5077    1.0296    0.3979 H   0  0  0  0  0  0  0  0  0  0  0  0
   -0.1308    0.5238    1.9595 H   0  0  0  0  0  0  0  0  0  0  0  0
   -1.2826    2.2002    1.3508 H   0  0  0  0  0  0  0  0  0  0  0  0
   -2.6630    2.6539   -0.6312 H   0  0  0  0  0  0  0  0  0  0  0  0
   -0.7888    3.9668   -1.5365 H   0  0  0  0  0  0  0  0  0  0  0  0
   -0.7859    4.0105    0.2290 H   0  0  0  0  0  0  0  0  0  0  0  0
    0.3822    2.9959   -0.6375 H   0  0  0  0  0  0  0  0  0  0  0  0
   -2.1844    0.4714   -1.8482 H   0  0  0  0  0  0  0  0  0  0  0  0
   -0.4808    0.9515   -1.9563 H   0  0  0  0  0  0  0  0  0  0  0  0
   -1.7216    1.9029   -2.7548 H   0  0  0  0  0  0  0  0  0  0  0  0
   -2.5368    0.2506    2.1471 H   0  0  0  0  0  0  0  0  0  0  0  0
   -3.2379   -0.6388   -0.1174 H   0  0  0  0  0  0  0  0  0  0  0  0
   -4.1372    0.8616   -0.4126 H   0  0  0  0  0  0  0  0  0  0  0  0
   -4.6112   -0.2135    0.8958 H   0  0  0  0  0  0  0  0  0  0  0  0
   -2.9365    2.6168    2.7306 H   0  0  0  0  0  0  0  0  0  0  0  0
   -3.8988    2.8517    1.2595 H   0  0  0  0  0  0  0  0  0  0  0  0
   -4.4654    1.7577    2.5255 H   0  0  0  0  0  0  0  0  0  0  0  0
  1  2  1  0
  2  3  1  0
  4  3  1  1
  4  5  1  0
  4  6  2  0
  4  7  1  0
  7  8  1  0
  8  9  1  0
  9 10  1  0
 10 11  1  0
 11 12  1  0
 11 13  1  0
 10 14  1  0
 14 15  1  0
 14 16  1  0
  1 17  1  0
  1 18  1  0
  1 19  1  0
  2 20  1  0
  2 21  1  0
  5 22  1  0
  5 23  1  0
  5 24  1  0
  8 25  1  0
  8 26  1  0
  9 27  1  0
  9 28  1  0
 10 29  1  6
 11 30  1  1
 12 31  1  0
 12 32  1  0
 12 33  1  0
 13 34  1  0
 13 35  1  0
 13 36  1  0
 14 37  1  6
 15 38  1  0
 15 39  1  0
 15 40  1  0
 16 41  1  0
 16 42  1  0
 16 43  1  0
M  CHG  1  10   1
M  END
$$$$
