VX
     RDKit          3D

 43 42  0  0  0  0  0  0  0  0999 V2000
    4.8985    1.5092    0.5556 C   0  0  0  0  0  0  0  0  0  0  0  0
    3.4403    1.4048    0.9504 C   0  0  0  0  0  0  0  0  0  0  0  0
    3.0022    0.0553    0.9869 O   0  0  0  0  0  0  0  0  0  0  0  0
    2.6823   -0.7287   -0.3861 P   0  0  2  0  0  0  0  0  0  0  0  0
    3.5474   -2.2615   -0.6694 C   0  0  0  0  0  0  0  0  0  0  0  0
    1.7023   -0.2184   -1.4066 O   0  0  0  0  0  0  0  0  0  0  0  0
    0.9456   -1.9081    0.6920 S   0  0  0  0  0  0  0  0  0  0  0  0
   -0.3668   -1.9613   -0.5677 C   0  0  0  0  0  0  0  0  0  0  0  0
   -1.0458   -0.6030   -0.8064 C   0  0  0  0  0  0  0  0  0  0  0  0
   -2.3227   -0.3664    0.0323 N   0  0  2  0  0  0  0  0  0  0  0  0
   -1.9691   -0.0306    1.4985 C   0  0  2  0  0  0  0  0  0  0  0  0
   -2.1963   -1.1924    2.4586 C   0  0  0  0  0  0  0  0  0  0  0  0
   -2.6994    1.2401    1.9328 C   0  0  0  0  0  0  0  0  0  0  0  0
   -3.4856   -1.3464   -0.2260 C   0  0  1  0  0  0  0  0  0  0  0  0
   -4.8045   -0.7450    0.2638 C   0  0  0  0  0  0  0  0  0  0  0  0
   -3.6310   -1.6444   -1.7226 C   0  0  0  0  0  0  0  0  0  0  0  0
    5.5163    0.8392    1.1617 H   0  0  0  0  0  0  0  0  0  0  0  0
    5.0386    1.2254   -0.4913 H   0  0  0  0  0  0  0  0  0  0  0  0
    5.2591    2.5347    0.6782 H   0  0  0  0  0  0  0  0  0  0  0  0
    2.8055    1.9900    0.2779 H   0  0  0  0  0  0  0  0  0  0  0  0
    3.3075    1.8126    1.9575 H   0  0  0  0  0  0  0  0  0  0  0  0
    4.4839   -2.1007   -1.2075 H   0  0  0  0  0  0  0  0  0  0  0  0
    2.9306   -2.9401   -1.2658 H   0  0  0  0  0  0  0  0  0  0  0  0
    3.7790   -2.7548    0.2789 H   0  0  0  0  0  0  0  0  0  0  0  0
   -1.0845   -2.7353   -0.2859 H   0  0  0  0  0  0  0  0  0  0  0  0
    0.1055   -2.2917   -1.4989 H   0  0  0  0  0  0  0  0  0  0  0  0
   -0.3960    0.2565   -0.6147 H   0  0  0  0  0  0  0  0  0  0  0  0
   -1.3541   -0.5153   -1.8529 H   0  0  0  0  0  0  0  0  0  0  0  0
   -2.6617    0.5229   -0.3579 H   0  0  0  0  0  0  0  0  0  0  0  0
   -0.9036    0.2213    1.5077 H   0  0  0  0  0  0  0  0  0  0  0  0
   -1.7369   -2.1182    2.1042 H   0  0  0  0  0  0  0  0  0  0  0  0
   -1.7502   -0.9604    3.4325 H   0  0  0  0  0  0  0  0  0  0  0  0
   -3.2561   -1.3885    2.6390 H   0  0  0  0  0  0  0  0  0  0  0  0
   -2.4965    2.0652    1.2415 H   0  0  0  0  0  0  0  0  0  0  0  0
   -2.3529    1.5522    2.9244 H   0  0  0  0  0  0  0  0  0  0  0  0
   -3.7813    1.1093    1.9957 H   0  0  0  0  0  0  0  0  0  0  0  0
   -3.2638   -2.2758    0.3062 H   0  0  0  0  0  0  0  0  0  0  0  0
   -4.9728    0.2520   -0.1577 H   0  0  0  0  0  0  0  0  0  0  0  0
   -4.8494   -0.6721    1.3514 H   0  0  0  0  0  0  0  0  0  0  0  0
   -5.6496   -1.3771   -0.0324 H   0  0  0  0  0  0  0  0  0  0  0  0
   -2.7835   -2.2177   -2.1094 H   0  0  0  0  0  0  0  0  0  0  0  0
   -3.7290   -0.7240   -2.3085 H   0  0  0  0  0  0  0  0  0  0  0  0
   -4.5227   -2.2537   -1.9089 H   0  0  0  0  0  0  0  0  0  0  0  0
  1  2  1  0
  2  3  1  0
  4  3  1  1
  4  5  1  0
  4  6  2  0
  4  7  1  0
  7  8  1  0
  8  9  1  0
  9 10  1  0
 10 11  1  0
 11 12  1  0
 11 13  1  0
 10 14  1  0
 14 15  1  0
 14 16  1  0
  1 17  1  0
  1 18  1  0
  1 19  1  0
  2 20  1  0
  2 21  1  0
  5 22  1  0
  5 23  1  0
  5 24  1  0
  8 25  1  0
  8 26  1  0
  9 27  1  0
  9 28  1  0
 10 29  1  6
 11 30  1  6
 12 31  1  0
 12 32  1  0
 12 33  1  0
 13 34  1  0
 13 35  1  0
 13 36  1  0
 14 37  1  1
 15 38  1  0
 15 39  1  0
 15 40  1  0
 16 41  1  0
 16 42  1  0
 16 43  1  0
M  CHG  1  10   1
M  END
$$$$
