VX
     RDKit          3D

 43 42  0  0  0  0  0  0  0  0999 V2000
    3.4886    2.1549    2.0261 C   0  0  0  0  0  0  0  0  0  0  0  0
    3.8984    1.1709    0.9479 C   0  0  0  0  0  0  0  0  0  0  0  0
    2.9824    0.0790    0.9809 O   0  0  0  0  0  0  0  0  0  0  0  0
    2.6903   -0.7388   -0.3843 P   0  0  2  0  0  0  0  0  0  0  0  0
    3.5451   -2.2754   -0.6883 C   0  0  0  0  0  0  0  0  0  0  0  0
    1.7165   -0.2181   -1.3835 O   0  0  0  0  0  0  0  0  0  0  0  0
    0.9536   -1.9182    0.6938 S   0  0  0  0  0  0  0  0  0  0  0  0
    0.0929   -0.5819    1.5738 C   0  0  0  0  0  0  0  0  0  0  0  0
   -1.4195   -0.7933    1.6210 C   0  0  0  0  0  0  0  0  0  0  0  0
   -2.1665    0.0988    0.6291 N   0  0  2  0  0  0  0  0  0  0  0  0
   -3.6040    0.4456    1.0615 C   0  0  2  0  0  0  0  0  0  0  0  0
   -3.5513    1.6272    2.0343 C   0  0  0  0  0  0  0  0  0  0  0  0
   -4.3471   -0.7428    1.6787 C   0  0  0  0  0  0  0  0  0  0  0  0
   -1.9944   -0.3175   -0.8420 C   0  0  2  0  0  0  0  0  0  0  0  0
   -2.2261    0.8947   -1.7479 C   0  0  0  0  0  0  0  0  0  0  0  0
   -2.8970   -1.4846   -1.2227 C   0  0  0  0  0  0  0  0  0  0  0  0
    2.4293    2.4078    1.9358 H   0  0  0  0  0  0  0  0  0  0  0  0
    4.0800    3.0740    1.9728 H   0  0  0  0  0  0  0  0  0  0  0  0
    3.6160    1.7100    3.0141 H   0  0  0  0  0  0  0  0  0  0  0  0
    4.9020    0.7874    1.1426 H   0  0  0  0  0  0  0  0  0  0  0  0
    3.8961    1.6504   -0.0329 H   0  0  0  0  0  0  0  0  0  0  0  0
    3.7748   -2.7731    0.2667 H   0  0  0  0  0  0  0  0  0  0  0  0
    2.9545   -2.9588   -1.3028 H   0  0  0  0  0  0  0  0  0  0  0  0
    4.4804   -2.0778   -1.2152 H   0  0  0  0  0  0  0  0  0  0  0  0
    0.4899   -0.5823    2.5974 H   0  0  0  0  0  0  0  0  0  0  0  0
    0.3437    0.3823    1.1283 H   0  0  0  0  0  0  0  0  0  0  0  0
   -1.7363   -1.8280    1.4548 H   0  0  0  0  0  0  0  0  0  0  0  0
   -1.7529   -0.4803    2.6095 H   0  0  0  0  0  0  0  0  0  0  0  0
   -1.6687    0.9966    0.6660 H   0  0  0  0  0  0  0  0  0  0  0  0
   -4.1405    0.7718    0.1665 H   0  0  0  0  0  0  0  0  0  0  0  0
   -2.9757    2.4586    1.6120 H   0  0  0  0  0  0  0  0  0  0  0  0
   -4.5667    2.0039    2.2392 H   0  0  0  0  0  0  0  0  0  0  0  0
   -3.0934    1.3488    2.9922 H   0  0  0  0  0  0  0  0  0  0  0  0
   -4.3194   -1.6304    1.0406 H   0  0  0  0  0  0  0  0  0  0  0  0
   -3.9466   -1.0176    2.6659 H   0  0  0  0  0  0  0  0  0  0  0  0
   -5.3998   -0.4798    1.8221 H   0  0  0  0  0  0  0  0  0  0  0  0
   -0.9542   -0.6153   -0.9604 H   0  0  0  0  0  0  0  0  0  0  0  0
   -3.2445    1.2827   -1.6696 H   0  0  0  0  0  0  0  0  0  0  0  0
   -1.5148    1.6986   -1.5297 H   0  0  0  0  0  0  0  0  0  0  0  0
   -2.0746    0.6157   -2.7912 H   0  0  0  0  0  0  0  0  0  0  0  0
   -3.9548   -1.2041   -1.1873 H   0  0  0  0  0  0  0  0  0  0  0  0
   -2.7303   -2.3559   -0.5824 H   0  0  0  0  0  0  0  0  0  0  0  0
   -2.6869   -1.7989   -2.2573 H   0  0  0  0  0  0  0  0  0  0  0  0
  1  2  1  0
  2  3  1  0
  4  3  1  1
  4  5  1  0
  4  6  2  0
  4  7  1  0
  7  8  1  0
  8  9  1  0
  9 10  1  0
 10 11  1  0
 11 12  1  0
 11 13  1  0
 10 14  1  0
 14 15  1  0
 14 16  1  0
  1 17  1  0
  1 18  1  0
  1 19  1  0
  2 20  1  0
  2 21  1  0
  5 22  1  0
  5 23  1  0
  5 24  1  0
  8 25  1  0
  8 26  1  0
  9 27  1  0
  9 28  1  0
 10 29  1  6
 11 30  1  6
 12 31  1  0
 12 32  1  0
 12 33  1  0
 13 34  1  0
 13 35  1  0
 13 36  1  0
 14 37  1  6
 15 38  1  0
 15 39  1  0
 15 40  1  0
 16 41  1  0
 16 42  1  0
 16 43  1  0
M  CHG  1  10   1
M  END
$$$$
