VX
     RDKit          3D

 43 42  0  0  0  0  0  0  0  0999 V2000
    3.7992    2.0002    2.1376 C   0  0  0  0  0  0  0  0  0  0  0  0
    4.0167    1.0542    0.9742 C   0  0  0  0  0  0  0  0  0  0  0  0
    2.9805    0.0818    0.9809 O   0  0  0  0  0  0  0  0  0  0  0  0
    2.6960   -0.7437   -0.3804 P   0  0  2  0  0  0  0  0  0  0  0  0
    3.5461   -2.2778   -0.6893 C   0  0  0  0  0  0  0  0  0  0  0  0
    1.7117   -0.2137   -1.3863 O   0  0  0  0  0  0  0  0  0  0  0  0
    0.9593   -1.9231    0.6977 S   0  0  0  0  0  0  0  0  0  0  0  0
   -0.5127   -0.9274    0.3172 C   0  0  0  0  0  0  0  0  0  0  0  0
   -0.4850    0.4189    1.0430 C   0  0  0  0  0  0  0  0  0  0  0  0
   -1.4366    1.4822    0.4627 N   0  0  2  0  0  0  0  0  0  0  0  0
   -2.9399    1.1643    0.5381 C   0  0  1  0  0  0  0  0  0  0  0  0
   -3.4077    0.1753   -0.5253 C   0  0  0  0  0  0  0  0  0  0  0  0
   -3.3311    0.7137    1.9437 C   0  0  0  0  0  0  0  0  0  0  0  0
   -0.9345    2.0998   -0.8711 C   0  0  1  0  0  0  0  0  0  0  0  0
   -1.9238    3.1390   -1.4095 C   0  0  0  0  0  0  0  0  0  0  0  0
    0.4039    2.8137   -0.6418 C   0  0  0  0  0  0  0  0  0  0  0  0
    3.7880    1.4516    3.0843 H   0  0  0  0  0  0  0  0  0  0  0  0
    2.8303    2.5026    2.0486 H   0  0  0  0  0  0  0  0  0  0  0  0
    4.5884    2.7564    2.1757 H   0  0  0  0  0  0  0  0  0  0  0  0
    4.9798    0.5457    1.0774 H   0  0  0  0  0  0  0  0  0  0  0  0
    4.0073    1.6102    0.0305 H   0  0  0  0  0  0  0  0  0  0  0  0
    2.9217   -2.9511   -1.2825 H   0  0  0  0  0  0  0  0  0  0  0  0
    4.4737   -2.1039   -1.2408 H   0  0  0  0  0  0  0  0  0  0  0  0
    3.7945   -2.7796    0.2496 H   0  0  0  0  0  0  0  0  0  0  0  0
   -1.3711   -1.5162    0.6520 H   0  0  0  0  0  0  0  0  0  0  0  0
   -0.5769   -0.8097   -0.7674 H   0  0  0  0  0  0  0  0  0  0  0  0
   -0.7576    0.2991    2.0969 H   0  0  0  0  0  0  0  0  0  0  0  0
    0.5094    0.8683    1.0522 H   0  0  0  0  0  0  0  0  0  0  0  0
   -1.3379    2.2609    1.1276 H   0  0  0  0  0  0  0  0  0  0  0  0
   -3.4428    2.1233    0.3728 H   0  0  0  0  0  0  0  0  0  0  0  0
   -3.0309    0.4161   -1.5232 H   0  0  0  0  0  0  0  0  0  0  0  0
   -4.5031    0.1938   -0.5819 H   0  0  0  0  0  0  0  0  0  0  0  0
   -3.1333   -0.8555   -0.2971 H   0  0  0  0  0  0  0  0  0  0  0  0
   -2.9341    1.3924    2.7072 H   0  0  0  0  0  0  0  0  0  0  0  0
   -4.4223    0.7030    2.0459 H   0  0  0  0  0  0  0  0  0  0  0  0
   -2.9770   -0.2993    2.1615 H   0  0  0  0  0  0  0  0  0  0  0  0
   -0.8216    1.2828   -1.5892 H   0  0  0  0  0  0  0  0  0  0  0  0
   -2.1263    3.9223   -0.6716 H   0  0  0  0  0  0  0  0  0  0  0  0
   -1.5172    3.6242   -2.3046 H   0  0  0  0  0  0  0  0  0  0  0  0
   -2.8747    2.6939   -1.7125 H   0  0  0  0  0  0  0  0  0  0  0  0
    1.2216    2.1130   -0.4584 H   0  0  0  0  0  0  0  0  0  0  0  0
    0.3540    3.5063    0.2063 H   0  0  0  0  0  0  0  0  0  0  0  0
    0.6914    3.3895   -1.5295 H   0  0  0  0  0  0  0  0  0  0  0  0
  1  2  1  0
  2  3  1  0
  4  3  1  1
  4  5  1  0
  4  6  2  0
  4  7  1  0
  7  8  1  0
  8  9  1  0
  9 10  1  0
 10 11  1  0
 11 12  1  0
 11 13  1  0
 10 14  1  0
 14 15  1  0
 14 16  1  0
  1 17  1  0
  1 18  1  0
  1 19  1  0
  2 20  1  0
  2 21  1  0
  5 22  1  0
  5 23  1  0
  5 24  1  0
  8 25  1  0
  8 26  1  0
  9 27  1  0
  9 28  1  0
 10 29  1  1
 11 30  1  1
 12 31  1  0
 12 32  1  0
 12 33  1  0
 13 34  1  0
 13 35  1  0
 13 36  1  0
 14 37  1  6
 15 38  1  0
 15 39  1  0
 15 40  1  0
 16 41  1  0
 16 42  1  0
 16 43  1  0
M  CHG  1  10   1
M  END
$$$$
