VX
     RDKit          3D

 43 42  0  0  0  0  0  0  0  0999 V2000
    3.2230    0.2706    3.3405 C   0  0  0  0  0  0  0  0  0  0  0  0
    3.5221   -0.5672    2.1146 C   0  0  0  0  0  0  0  0  0  0  0  0
    2.9770    0.0848    0.9786 O   0  0  0  0  0  0  0  0  0  0  0  0
    2.6987   -0.7459   -0.3785 P   0  0  2  0  0  0  0  0  0  0  0  0
    3.5464   -2.2803   -0.6916 C   0  0  0  0  0  0  0  0  0  0  0  0
    1.7121   -0.2118   -1.3837 O   0  0  0  0  0  0  0  0  0  0  0  0
    0.9620   -1.9254    0.6996 S   0  0  0  0  0  0  0  0  0  0  0  0
   -0.5299   -1.1078    0.0601 C   0  0  0  0  0  0  0  0  0  0  0  0
   -0.5844    0.3717    0.4739 C   0  0  0  0  0  0  0  0  0  0  0  0
   -1.6061    1.1545   -0.3597 N   0  0  1  0  0  0  0  0  0  0  0  0
   -2.2702    2.3282    0.3784 C   0  0  1  0  0  0  0  0  0  0  0  0
   -3.4483    1.7857    1.1891 C   0  0  0  0  0  0  0  0  0  0  0  0
   -1.3021    3.1055    1.2692 C   0  0  0  0  0  0  0  0  0  0  0  0
   -1.0967    1.4648   -1.7849 C   0  0  1  0  0  0  0  0  0  0  0  0
   -2.2925    1.6257   -2.7245 C   0  0  0  0  0  0  0  0  0  0  0  0
   -0.1678    2.6700   -1.8349 C   0  0  0  0  0  0  0  0  0  0  0  0
    2.1423    0.3923    3.4690 H   0  0  0  0  0  0  0  0  0  0  0  0
    3.6357   -0.1932    4.2407 H   0  0  0  0  0  0  0  0  0  0  0  0
    3.6462    1.2749    3.2345 H   0  0  0  0  0  0  0  0  0  0  0  0
    4.6036   -0.6650    1.9813 H   0  0  0  0  0  0  0  0  0  0  0  0
    3.0880   -1.5648    2.2281 H   0  0  0  0  0  0  0  0  0  0  0  0
    4.5139   -2.0932   -1.1657 H   0  0  0  0  0  0  0  0  0  0  0  0
    2.9548   -2.9103   -1.3620 H   0  0  0  0  0  0  0  0  0  0  0  0
    3.7173   -2.8402    0.2319 H   0  0  0  0  0  0  0  0  0  0  0  0
   -1.4067   -1.6317    0.4554 H   0  0  0  0  0  0  0  0  0  0  0  0
   -0.5432   -1.2416   -1.0239 H   0  0  0  0  0  0  0  0  0  0  0  0
    0.3667    0.9012    0.3883 H   0  0  0  0  0  0  0  0  0  0  0  0
   -0.9132    0.4151    1.5171 H   0  0  0  0  0  0  0  0  0  0  0  0
   -2.3708    0.4871   -0.5197 H   0  0  0  0  0  0  0  0  0  0  0  0
   -2.6714    3.0003   -0.3855 H   0  0  0  0  0  0  0  0  0  0  0  0
   -4.1693    1.2763    0.5407 H   0  0  0  0  0  0  0  0  0  0  0  0
   -3.9768    2.6038    1.6903 H   0  0  0  0  0  0  0  0  0  0  0  0
   -3.1238    1.0772    1.9579 H   0  0  0  0  0  0  0  0  0  0  0  0
   -1.7926    4.0111    1.6443 H   0  0  0  0  0  0  0  0  0  0  0  0
   -0.4031    3.4233    0.7376 H   0  0  0  0  0  0  0  0  0  0  0  0
   -0.9907    2.5311    2.1473 H   0  0  0  0  0  0  0  0  0  0  0  0
   -0.5471    0.5804   -2.1156 H   0  0  0  0  0  0  0  0  0  0  0  0
   -2.8825    2.5191   -2.5010 H   0  0  0  0  0  0  0  0  0  0  0  0
   -2.9559    0.7559   -2.6716 H   0  0  0  0  0  0  0  0  0  0  0  0
   -1.9482    1.7139   -3.7610 H   0  0  0  0  0  0  0  0  0  0  0  0
    0.2433    2.7820   -2.8446 H   0  0  0  0  0  0  0  0  0  0  0  0
    0.6809    2.5590   -1.1543 H   0  0  0  0  0  0  0  0  0  0  0  0
   -0.6885    3.6028   -1.5988 H   0  0  0  0  0  0  0  0  0  0  0  0
  1  2  1  0
  2  3  1  0
  4  3  1  1
  4  5  1  0
  4  6  2  0
  4  7  1  0
  7  8  1  0
  8  9  1  0
  9 10  1  0
 10 11  1  0
 11 12  1  0
 11 13  1  0
 10 14  1  0
 14 15  1  0
 14 16  1  0
  1 17  1  0
  1 18  1  0
  1 19  1  0
  2 20  1  0
  2 21  1  0
  5 22  1  0
  5 23  1  0
  5 24  1  0
  8 25  1  0
  8 26  1  0
  9 27  1  0
  9 28  1  0
 10 29  1  1
 11 30  1  1
 12 31  1  0
 12 32  1  0
 12 33  1  0
 13 34  1  0
 13 35  1  0
 13 36  1  0
 14 37  1  6
 15 38  1  0
 15 39  1  0
 15 40  1  0
 16 41  1  0
 16 42  1  0
 16 43  1  0
M  CHG  1  10   1
M  END
$$$$
