VX
     RDKit          3D

 43 42  0  0  0  0  0  0  0  0999 V2000
    3.2266    1.9434    2.4383 C   0  0  0  0  0  0  0  0  0  0  0  0
    2.8799    1.4536    1.0365 C   0  0  0  0  0  0  0  0  0  0  0  0
    3.0155    0.0421    0.9939 O   0  0  0  0  0  0  0  0  0  0  0  0
    2.6712   -0.7152   -0.3892 P   0  0  2  0  0  0  0  0  0  0  0  0
    3.5554   -2.2633   -0.6585 C   0  0  0  0  0  0  0  0  0  0  0  0
    1.6922   -0.2170   -1.4214 O   0  0  0  0  0  0  0  0  0  0  0  0
    0.9344   -1.8946    0.6889 S   0  0  0  0  0  0  0  0  0  0  0  0
   -0.1161   -2.4040   -0.7196 C   0  0  0  0  0  0  0  0  0  0  0  0
   -1.3567   -1.5126   -0.7941 C   0  0  0  0  0  0  0  0  0  0  0  0
   -2.3576   -1.8307   -1.9155 N   0  0  1  0  0  0  0  0  0  0  0  0
   -1.9082   -1.6876   -3.3848 C   0  0  2  0  0  0  0  0  0  0  0  0
   -1.1888   -2.9237   -3.9265 C   0  0  0  0  0  0  0  0  0  0  0  0
   -1.1196   -0.3910   -3.5810 C   0  0  0  0  0  0  0  0  0  0  0  0
   -3.3837   -2.9554   -1.6664 C   0  0  1  0  0  0  0  0  0  0  0  0
   -2.7646   -4.2554   -1.1588 C   0  0  0  0  0  0  0  0  0  0  0  0
   -4.4690   -2.4567   -0.7001 C   0  0  0  0  0  0  0  0  0  0  0  0
    4.2679    1.7238    2.6779 H   0  0  0  0  0  0  0  0  0  0  0  0
    2.6176    1.4433    3.1926 H   0  0  0  0  0  0  0  0  0  0  0  0
    3.0737    3.0214    2.5324 H   0  0  0  0  0  0  0  0  0  0  0  0
    3.5511    1.9078    0.2920 H   0  0  0  0  0  0  0  0  0  0  0  0
    1.8364    1.7190    0.7885 H   0  0  0  0  0  0  0  0  0  0  0  0
    3.9004   -2.7020    0.2992 H   0  0  0  0  0  0  0  0  0  0  0  0
    2.9084   -3.0008   -1.1462 H   0  0  0  0  0  0  0  0  0  0  0  0
    4.4281   -2.0847   -1.3050 H   0  0  0  0  0  0  0  0  0  0  0  0
   -0.3649   -3.4565   -0.5519 H   0  0  0  0  0  0  0  0  0  0  0  0
    0.4883   -2.3444   -1.6279 H   0  0  0  0  0  0  0  0  0  0  0  0
   -1.0760   -0.4519   -0.9228 H   0  0  0  0  0  0  0  0  0  0  0  0
   -1.9341   -1.5682    0.1447 H   0  0  0  0  0  0  0  0  0  0  0  0
   -2.9609   -0.9973   -1.8405 H   0  0  0  0  0  0  0  0  0  0  0  0
   -2.8445   -1.5756   -3.9481 H   0  0  0  0  0  0  0  0  0  0  0  0
   -0.3038   -3.2039   -3.3515 H   0  0  0  0  0  0  0  0  0  0  0  0
   -0.8599   -2.7400   -4.9631 H   0  0  0  0  0  0  0  0  0  0  0  0
   -1.8681   -3.7845   -3.9523 H   0  0  0  0  0  0  0  0  0  0  0  0
   -1.6612    0.4689   -3.1847 H   0  0  0  0  0  0  0  0  0  0  0  0
   -0.1371   -0.4371   -3.0951 H   0  0  0  0  0  0  0  0  0  0  0  0
   -0.9458   -0.2161   -4.6461 H   0  0  0  0  0  0  0  0  0  0  0  0
   -3.8592   -3.1477   -2.6328 H   0  0  0  0  0  0  0  0  0  0  0  0
   -3.5295   -5.0578   -1.1237 H   0  0  0  0  0  0  0  0  0  0  0  0
   -2.3818   -4.1478   -0.1305 H   0  0  0  0  0  0  0  0  0  0  0  0
   -1.9496   -4.6076   -1.8169 H   0  0  0  0  0  0  0  0  0  0  0  0
   -5.2379   -3.2338   -0.5646 H   0  0  0  0  0  0  0  0  0  0  0  0
   -4.9643   -1.5550   -1.0882 H   0  0  0  0  0  0  0  0  0  0  0  0
   -4.0730   -2.2168    0.2926 H   0  0  0  0  0  0  0  0  0  0  0  0
  1  2  1  0
  2  3  1  0
  4  3  1  1
  4  5  1  0
  4  6  2  0
  4  7  1  0
  7  8  1  0
  8  9  1  0
  9 10  1  0
 10 11  1  0
 11 12  1  0
 11 13  1  0
 10 14  1  0
 14 15  1  0
 14 16  1  0
  1 17  1  0
  1 18  1  0
  1 19  1  0
  2 20  1  0
  2 21  1  0
  5 22  1  0
  5 23  1  0
  5 24  1  0
  8 25  1  0
  8 26  1  0
  9 27  1  0
  9 28  1  0
 10 29  1  6
 11 30  1  6
 12 31  1  0
 12 32  1  0
 12 33  1  0
 13 34  1  0
 13 35  1  0
 13 36  1  0
 14 37  1  6
 15 38  1  0
 15 39  1  0
 15 40  1  0
 16 41  1  0
 16 42  1  0
 16 43  1  0
M  CHG  1  10   1
M  END
$$$$
