VX
     RDKit          3D

 43 42  0  0  0  0  0  0  0  0999 V2000
    4.0315    1.7617    2.3033 C   0  0  0  0  0  0  0  0  0  0  0  0
    3.8276    1.2156    0.9054 C   0  0  0  0  0  0  0  0  0  0  0  0
    2.9919    0.0696    0.9860 O   0  0  0  0  0  0  0  0  0  0  0  0
    2.6880   -0.7359   -0.3849 P   0  0  2  0  0  0  0  0  0  0  0  0
    3.5461   -2.2695   -0.6802 C   0  0  0  0  0  0  0  0  0  0  0  0
    1.7083   -0.2177   -1.3961 O   0  0  0  0  0  0  0  0  0  0  0  0
    0.9512   -1.9153    0.6932 S   0  0  0  0  0  0  0  0  0  0  0  0
   -0.4377   -0.7561    0.5253 C   0  0  0  0  0  0  0  0  0  0  0  0
   -1.6554   -0.9850    1.4354 C   0  0  0  0  0  0  0  0  0  0  0  0
   -1.3881   -1.0617    2.9577 N   0  0  1  0  0  0  0  0  0  0  0  0
   -1.0368   -2.4766    3.5068 C   0  0  1  0  0  0  0  0  0  0  0  0
   -1.7313   -2.6827    4.8643 C   0  0  0  0  0  0  0  0  0  0  0  0
   -1.5303   -3.6260    2.6166 C   0  0  0  0  0  0  0  0  0  0  0  0
   -0.4649    0.0970    3.4353 C   0  0  1  0  0  0  0  0  0  0  0  0
   -1.1400    1.4420    3.1361 C   0  0  0  0  0  0  0  0  0  0  0  0
   -0.1511    0.0487    4.9270 C   0  0  0  0  0  0  0  0  0  0  0  0
    4.6633    2.6538    2.2859 H   0  0  0  0  0  0  0  0  0  0  0  0
    4.5001    1.0092    2.9462 H   0  0  0  0  0  0  0  0  0  0  0  0
    3.0707    2.0176    2.7623 H   0  0  0  0  0  0  0  0  0  0  0  0
    4.7903    0.9416    0.4651 H   0  0  0  0  0  0  0  0  0  0  0  0
    3.3483    1.9691    0.2734 H   0  0  0  0  0  0  0  0  0  0  0  0
    3.7707   -2.7758    0.2631 H   0  0  0  0  0  0  0  0  0  0  0  0
    2.9327   -2.9382   -1.2911 H   0  0  0  0  0  0  0  0  0  0  0  0
    4.4869   -2.0975   -1.2097 H   0  0  0  0  0  0  0  0  0  0  0  0
   -0.7748   -0.8000   -0.5162 H   0  0  0  0  0  0  0  0  0  0  0  0
   -0.0469    0.2552    0.6719 H   0  0  0  0  0  0  0  0  0  0  0  0
   -2.3514   -0.1477    1.3066 H   0  0  0  0  0  0  0  0  0  0  0  0
   -2.2301   -1.8622    1.1326 H   0  0  0  0  0  0  0  0  0  0  0  0
   -2.3065   -0.8586    3.3725 H   0  0  0  0  0  0  0  0  0  0  0  0
    0.0519   -2.5233    3.6048 H   0  0  0  0  0  0  0  0  0  0  0  0
   -1.3893   -2.0070    5.6453 H   0  0  0  0  0  0  0  0  0  0  0  0
   -1.5419   -3.6955    5.2392 H   0  0  0  0  0  0  0  0  0  0  0  0
   -2.8171   -2.5624    4.7760 H   0  0  0  0  0  0  0  0  0  0  0  0
   -1.0608   -3.6440    1.6328 H   0  0  0  0  0  0  0  0  0  0  0  0
   -2.6176   -3.5957    2.4837 H   0  0  0  0  0  0  0  0  0  0  0  0
   -1.2896   -4.5907    3.0797 H   0  0  0  0  0  0  0  0  0  0  0  0
    0.4772    0.0080    2.8891 H   0  0  0  0  0  0  0  0  0  0  0  0
   -0.5414    2.2699    3.5333 H   0  0  0  0  0  0  0  0  0  0  0  0
   -1.2495    1.6277    2.0648 H   0  0  0  0  0  0  0  0  0  0  0  0
   -2.1333    1.4987    3.5949 H   0  0  0  0  0  0  0  0  0  0  0  0
    0.4811    0.9000    5.2066 H   0  0  0  0  0  0  0  0  0  0  0  0
   -1.0595    0.1143    5.5339 H   0  0  0  0  0  0  0  0  0  0  0  0
    0.4151   -0.8466    5.1980 H   0  0  0  0  0  0  0  0  0  0  0  0
  1  2  1  0
  2  3  1  0
  4  3  1  1
  4  5  1  0
  4  6  2  0
  4  7  1  0
  7  8  1  0
  8  9  1  0
  9 10  1  0
 10 11  1  0
 11 12  1  0
 11 13  1  0
 10 14  1  0
 14 15  1  0
 14 16  1  0
  1 17  1  0
  1 18  1  0
  1 19  1  0
  2 20  1  0
  2 21  1  0
  5 22  1  0
  5 23  1  0
  5 24  1  0
  8 25  1  0
  8 26  1  0
  9 27  1  0
  9 28  1  0
 10 29  1  6
 11 30  1  6
 12 31  1  0
 12 32  1  0
 12 33  1  0
 13 34  1  0
 13 35  1  0
 13 36  1  0
 14 37  1  6
 15 38  1  0
 15 39  1  0
 15 40  1  0
 16 41  1  0
 16 42  1  0
 16 43  1  0
M  CHG  1  10   1
M  END
$$$$
