VX
     RDKit          3D

 43 42  0  0  0  0  0  0  0  0999 V2000
    3.6326    2.1319    1.9961 C   0  0  0  0  0  0  0  0  0  0  0  0
    3.9951    1.0728    0.9741 C   0  0  0  0  0  0  0  0  0  0  0  0
    2.9854    0.0753    0.9817 O   0  0  0  0  0  0  0  0  0  0  0  0
    2.6934   -0.7405   -0.3812 P   0  0  2  0  0  0  0  0  0  0  0  0
    3.5464   -2.2738   -0.6845 C   0  0  0  0  0  0  0  0  0  0  0  0
    1.7090   -0.2143   -1.3913 O   0  0  0  0  0  0  0  0  0  0  0  0
    0.9567   -1.9200    0.6969 S   0  0  0  0  0  0  0  0  0  0  0  0
   -0.3495   -0.6681    0.7923 C   0  0  0  0  0  0  0  0  0  0  0  0
   -1.1322   -0.5797   -0.5263 C   0  0  0  0  0  0  0  0  0  0  0  0
   -1.9320    0.7463   -0.5914 N   0  0  2  0  0  0  0  0  0  0  0  0
   -3.3092    0.5830   -1.2713 C   0  0  2  0  0  0  0  0  0  0  0  0
   -4.0871    1.8991   -1.2803 C   0  0  0  0  0  0  0  0  0  0  0  0
   -4.1567   -0.4378   -0.4948 C   0  0  0  0  0  0  0  0  0  0  0  0
   -0.9837    1.8500   -1.1243 C   0  0  1  0  0  0  0  0  0  0  0  0
   -0.9417    1.9071   -2.6470 C   0  0  0  0  0  0  0  0  0  0  0  0
   -1.2780    3.1945   -0.4644 C   0  0  0  0  0  0  0  0  0  0  0  0
    4.3963    2.9136    2.0338 H   0  0  0  0  0  0  0  0  0  0  0  0
    3.5282    1.6893    2.9940 H   0  0  0  0  0  0  0  0  0  0  0  0
    2.6676    2.5917    1.7489 H   0  0  0  0  0  0  0  0  0  0  0  0
    4.9501    0.6028    1.2330 H   0  0  0  0  0  0  0  0  0  0  0  0
    4.0828    1.5249   -0.0210 H   0  0  0  0  0  0  0  0  0  0  0  0
    2.9354   -2.9326   -1.3091 H   0  0  0  0  0  0  0  0  0  0  0  0
    3.7559   -2.7906    0.2569 H   0  0  0  0  0  0  0  0  0  0  0  0
    4.4967   -2.1020   -1.1986 H   0  0  0  0  0  0  0  0  0  0  0  0
   -1.0320   -0.9347    1.6057 H   0  0  0  0  0  0  0  0  0  0  0  0
    0.1149    0.2862    1.0605 H   0  0  0  0  0  0  0  0  0  0  0  0
   -1.8265   -1.4183   -0.5814 H   0  0  0  0  0  0  0  0  0  0  0  0
   -0.5132   -0.6247   -1.4248 H   0  0  0  0  0  0  0  0  0  0  0  0
   -2.1448    0.9996    0.3821 H   0  0  0  0  0  0  0  0  0  0  0  0
   -3.1282    0.2267   -2.2910 H   0  0  0  0  0  0  0  0  0  0  0  0
   -4.1402    2.3417   -0.2799 H   0  0  0  0  0  0  0  0  0  0  0  0
   -5.1148    1.7395   -1.6256 H   0  0  0  0  0  0  0  0  0  0  0  0
   -3.6587    2.6284   -1.9684 H   0  0  0  0  0  0  0  0  0  0  0  0
   -5.2021   -0.4088   -0.8253 H   0  0  0  0  0  0  0  0  0  0  0  0
   -3.8253   -1.4666   -0.6602 H   0  0  0  0  0  0  0  0  0  0  0  0
   -4.1415   -0.2375    0.5824 H   0  0  0  0  0  0  0  0  0  0  0  0
    0.0170    1.5729   -0.7765 H   0  0  0  0  0  0  0  0  0  0  0  0
   -0.1549    2.5986   -2.9708 H   0  0  0  0  0  0  0  0  0  0  0  0
   -0.7132    0.9296   -3.0832 H   0  0  0  0  0  0  0  0  0  0  0  0
   -1.8755    2.2631   -3.0881 H   0  0  0  0  0  0  0  0  0  0  0  0
   -2.1753    3.6806   -0.8499 H   0  0  0  0  0  0  0  0  0  0  0  0
   -1.3749    3.0918    0.6223 H   0  0  0  0  0  0  0  0  0  0  0  0
   -0.4480    3.8846   -0.6518 H   0  0  0  0  0  0  0  0  0  0  0  0
  1  2  1  0
  2  3  1  0
  4  3  1  1
  4  5  1  0
  4  6  2  0
  4  7  1  0
  7  8  1  0
  8  9  1  0
  9 10  1  0
 10 11  1  0
 11 12  1  0
 11 13  1  0
 10 14  1  0
 14 15  1  0
 14 16  1  0
  1 17  1  0
  1 18  1  0
  1 19  1  0
  2 20  1  0
  2 21  1  0
  5 22  1  0
  5 23  1  0
  5 24  1  0
  8 25  1  0
  8 26  1  0
  9 27  1  0
  9 28  1  0
 10 29  1  1
 11 30  1  6
 12 31  1  0
 12 32  1  0
 12 33  1  0
 13 34  1  0
 13 35  1  0
 13 36  1  0
 14 37  1  1
 15 38  1  0
 15 39  1  0
 15 40  1  0
 16 41  1  0
 16 42  1  0
 16 43  1  0
M  CHG  1  10   1
M  END
$$$$
