VX
     RDKit          3D

 43 42  0  0  0  0  0  0  0  0999 V2000
    3.5899    2.1579    1.9582 C   0  0  0  0  0  0  0  0  0  0  0  0
    3.9912    1.0790    0.9744 C   0  0  0  0  0  0  0  0  0  0  0  0
    2.9890    0.0699    0.9816 O   0  0  0  0  0  0  0  0  0  0  0  0
    2.6902   -0.7371   -0.3826 P   0  0  2  0  0  0  0  0  0  0  0  0
    3.5462   -2.2702   -0.6808 C   0  0  0  0  0  0  0  0  0  0  0  0
    1.7088   -0.2159   -1.3934 O   0  0  0  0  0  0  0  0  0  0  0  0
    0.9535   -1.9166    0.6955 S   0  0  0  0  0  0  0  0  0  0  0  0
   -0.1221   -0.5519    1.2496 C   0  0  0  0  0  0  0  0  0  0  0  0
   -1.5908   -0.7894    0.8771 C   0  0  0  0  0  0  0  0  0  0  0  0
   -1.7625   -1.2804   -0.5815 N   0  0  2  0  0  0  0  0  0  0  0  0
   -1.6006   -0.0900   -1.5532 C   0  0  2  0  0  0  0  0  0  0  0  0
   -2.8920    0.7046   -1.7112 C   0  0  0  0  0  0  0  0  0  0  0  0
   -0.9907   -0.5234   -2.8859 C   0  0  0  0  0  0  0  0  0  0  0  0
   -2.9819   -2.2110   -0.7543 C   0  0  1  0  0  0  0  0  0  0  0  0
   -3.1280   -2.7074   -2.1916 C   0  0  0  0  0  0  0  0  0  0  0  0
   -2.8327   -3.4542    0.1393 C   0  0  0  0  0  0  0  0  0  0  0  0
    2.6406    2.6150    1.6579 H   0  0  0  0  0  0  0  0  0  0  0  0
    4.3538    2.9384    2.0167 H   0  0  0  0  0  0  0  0  0  0  0  0
    3.4344    1.7362    2.9580 H   0  0  0  0  0  0  0  0  0  0  0  0
    4.9434    0.6248    1.2724 H   0  0  0  0  0  0  0  0  0  0  0  0
    4.1038    1.5070   -0.0295 H   0  0  0  0  0  0  0  0  0  0  0  0
    2.9355   -2.9338   -1.3024 H   0  0  0  0  0  0  0  0  0  0  0  0
    3.7641   -2.7828    0.2615 H   0  0  0  0  0  0  0  0  0  0  0  0
    4.4917   -2.0931   -1.2027 H   0  0  0  0  0  0  0  0  0  0  0  0
    0.2325    0.3895    0.8198 H   0  0  0  0  0  0  0  0  0  0  0  0
   -0.0290   -0.4559    2.3363 H   0  0  0  0  0  0  0  0  0  0  0  0
   -1.9963   -1.5442    1.5528 H   0  0  0  0  0  0  0  0  0  0  0  0
   -2.1900    0.1181    1.0057 H   0  0  0  0  0  0  0  0  0  0  0  0
   -0.9356   -1.8789   -0.7389 H   0  0  0  0  0  0  0  0  0  0  0  0
   -0.8638    0.5717   -1.0836 H   0  0  0  0  0  0  0  0  0  0  0  0
   -3.6411    0.1784   -2.3042 H   0  0  0  0  0  0  0  0  0  0  0  0
   -3.3399    0.9552   -0.7446 H   0  0  0  0  0  0  0  0  0  0  0  0
   -2.6833    1.6477   -2.2260 H   0  0  0  0  0  0  0  0  0  0  0  0
   -0.1864   -1.2507   -2.7452 H   0  0  0  0  0  0  0  0  0  0  0  0
   -0.5618    0.3505   -3.3951 H   0  0  0  0  0  0  0  0  0  0  0  0
   -1.7200   -0.9482   -3.5803 H   0  0  0  0  0  0  0  0  0  0  0  0
   -3.8652   -1.6375   -0.4512 H   0  0  0  0  0  0  0  0  0  0  0  0
   -2.1901   -3.1264   -2.5724 H   0  0  0  0  0  0  0  0  0  0  0  0
   -3.8871   -3.4961   -2.2525 H   0  0  0  0  0  0  0  0  0  0  0  0
   -3.4725   -1.9234   -2.8674 H   0  0  0  0  0  0  0  0  0  0  0  0
   -1.8501   -3.9219    0.0169 H   0  0  0  0  0  0  0  0  0  0  0  0
   -2.9783   -3.2280    1.1993 H   0  0  0  0  0  0  0  0  0  0  0  0
   -3.5926   -4.2060   -0.1075 H   0  0  0  0  0  0  0  0  0  0  0  0
  1  2  1  0
  2  3  1  0
  4  3  1  1
  4  5  1  0
  4  6  2  0
  4  7  1  0
  7  8  1  0
  8  9  1  0
  9 10  1  0
 10 11  1  0
 11 12  1  0
 11 13  1  0
 10 14  1  0
 14 15  1  0
 14 16  1  0
  1 17  1  0
  1 18  1  0
  1 19  1  0
  2 20  1  0
  2 21  1  0
  5 22  1  0
  5 23  1  0
  5 24  1  0
  8 25  1  0
  8 26  1  0
  9 27  1  0
  9 28  1  0
 10 29  1  6
 11 30  1  1
 12 31  1  0
 12 32  1  0
 12 33  1  0
 13 34  1  0
 13 35  1  0
 13 36  1  0
 14 37  1  1
 15 38  1  0
 15 39  1  0
 15 40  1  0
 16 41  1  0
 16 42  1  0
 16 43  1  0
M  CHG  1  10   1
M  END
$$$$
