VX
     RDKit          3D

 43 42  0  0  0  0  0  0  0  0999 V2000
    3.9278    1.8406    2.2842 C   0  0  0  0  0  0  0  0  0  0  0  0
    3.8520    1.1982    0.9131 C   0  0  0  0  0  0  0  0  0  0  0  0
    2.9971    0.0670    0.9916 O   0  0  0  0  0  0  0  0  0  0  0  0
    2.6846   -0.7328   -0.3869 P   0  0  2  0  0  0  0  0  0  0  0  0
    3.5478   -2.2694   -0.6774 C   0  0  0  0  0  0  0  0  0  0  0  0
    1.7047   -0.2182   -1.4025 O   0  0  0  0  0  0  0  0  0  0  0  0
    0.9479   -1.9122    0.6912 S   0  0  0  0  0  0  0  0  0  0  0  0
   -0.1072   -0.5675    1.2970 C   0  0  0  0  0  0  0  0  0  0  0  0
   -1.5594   -0.9585    1.5894 C   0  0  0  0  0  0  0  0  0  0  0  0
   -1.8175   -1.7596    2.8780 N   0  0  2  0  0  0  0  0  0  0  0  0
   -1.3630   -1.0928    4.1894 C   0  0  1  0  0  0  0  0  0  0  0  0
   -1.7123    0.3995    4.1934 C   0  0  0  0  0  0  0  0  0  0  0  0
   -2.0858   -1.7261    5.3784 C   0  0  0  0  0  0  0  0  0  0  0  0
   -1.5236   -3.2675    2.6775 C   0  0  1  0  0  0  0  0  0  0  0  0
   -0.2701   -3.7546    3.4024 C   0  0  0  0  0  0  0  0  0  0  0  0
   -2.7634   -4.0869    3.0475 C   0  0  0  0  0  0  0  0  0  0  0  0
    4.3038    1.1242    3.0231 H   0  0  0  0  0  0  0  0  0  0  0  0
    2.9347    2.1527    2.6168 H   0  0  0  0  0  0  0  0  0  0  0  0
    4.5845    2.7145    2.2680 H   0  0  0  0  0  0  0  0  0  0  0  0
    3.4521    1.9125    0.1826 H   0  0  0  0  0  0  0  0  0  0  0  0
    4.8512    0.8799    0.5940 H   0  0  0  0  0  0  0  0  0  0  0  0
    3.7533   -2.7927    0.2654 H   0  0  0  0  0  0  0  0  0  0  0  0
    4.5009   -2.0924   -1.1799 H   0  0  0  0  0  0  0  0  0  0  0  0
    2.9450   -2.9286   -1.3173 H   0  0  0  0  0  0  0  0  0  0  0  0
    0.3762   -0.1057    2.1610 H   0  0  0  0  0  0  0  0  0  0  0  0
   -0.1294    0.1896    0.5019 H   0  0  0  0  0  0  0  0  0  0  0  0
   -2.0076   -1.5198    0.7652 H   0  0  0  0  0  0  0  0  0  0  0  0
   -2.1602   -0.0537    1.6860 H   0  0  0  0  0  0  0  0  0  0  0  0
   -2.8442   -1.7169    2.9395 H   0  0  0  0  0  0  0  0  0  0  0  0
   -0.2779   -1.2192    4.2691 H   0  0  0  0  0  0  0  0  0  0  0  0
   -1.4923    0.8435    5.1706 H   0  0  0  0  0  0  0  0  0  0  0  0
   -2.7786    0.5608    3.9853 H   0  0  0  0  0  0  0  0  0  0  0  0
   -1.1293    0.9659    3.4642 H   0  0  0  0  0  0  0  0  0  0  0  0
   -1.8489   -2.7794    5.5093 H   0  0  0  0  0  0  0  0  0  0  0  0
   -3.1749   -1.6333    5.2807 H   0  0  0  0  0  0  0  0  0  0  0  0
   -1.7905   -1.2303    6.3082 H   0  0  0  0  0  0  0  0  0  0  0  0
   -1.3839   -3.4092    1.6054 H   0  0  0  0  0  0  0  0  0  0  0  0
   -0.4183   -3.8766    4.4740 H   0  0  0  0  0  0  0  0  0  0  0  0
    0.5878   -3.0894    3.2663 H   0  0  0  0  0  0  0  0  0  0  0  0
    0.0151   -4.7432    3.0210 H   0  0  0  0  0  0  0  0  0  0  0  0
   -2.6479   -5.1226    2.7139 H   0  0  0  0  0  0  0  0  0  0  0  0
   -3.6625   -3.6877    2.5684 H   0  0  0  0  0  0  0  0  0  0  0  0
   -2.9400   -4.1114    4.1227 H   0  0  0  0  0  0  0  0  0  0  0  0
  1  2  1  0
  2  3  1  0
  4  3  1  1
  4  5  1  0
  4  6  2  0
  4  7  1  0
  7  8  1  0
  8  9  1  0
  9 10  1  0
 10 11  1  0
 11 12  1  0
 11 13  1  0
 10 14  1  0
 14 15  1  0
 14 16  1  0
  1 17  1  0
  1 18  1  0
  1 19  1  0
  2 20  1  0
  2 21  1  0
  5 22  1  0
  5 23  1  0
  5 24  1  0
  8 25  1  0
  8 26  1  0
  9 27  1  0
  9 28  1  0
 10 29  1  1
 11 30  1  6
 12 31  1  0
 12 32  1  0
 12 33  1  0
 13 34  1  0
 13 35  1  0
 13 36  1  0
 14 37  1  6
 15 38  1  0
 15 39  1  0
 15 40  1  0
 16 41  1  0
 16 42  1  0
 16 43  1  0
M  CHG  1  10   1
M  END
$$$$
