VX
     RDKit          3D

 43 42  0  0  0  0  0  0  0  0999 V2000
    5.1663    1.1203    1.1647 C   0  0  0  0  0  0  0  0  0  0  0  0
    3.6777    1.3087    0.9519 C   0  0  0  0  0  0  0  0  0  0  0  0
    2.9944    0.0647    0.9847 O   0  0  0  0  0  0  0  0  0  0  0  0
    2.6883   -0.7349   -0.3832 P   0  0  2  0  0  0  0  0  0  0  0  0
    3.5471   -2.2673   -0.6763 C   0  0  0  0  0  0  0  0  0  0  0  0
    1.7045   -0.2159   -1.4003 O   0  0  0  0  0  0  0  0  0  0  0  0
    0.9515   -1.9143    0.6948 S   0  0  0  0  0  0  0  0  0  0  0  0
   -0.5428   -1.3546   -0.1685 C   0  0  0  0  0  0  0  0  0  0  0  0
   -0.8254    0.1333    0.1128 C   0  0  0  0  0  0  0  0  0  0  0  0
   -1.9267    0.6817   -0.8280 N   0  0  2  0  0  0  0  0  0  0  0  0
   -1.2979    0.9480   -2.2231 C   0  0  2  0  0  0  0  0  0  0  0  0
   -0.6812    2.3378   -2.3342 C   0  0  0  0  0  0  0  0  0  0  0  0
   -2.2846    0.6167   -3.3415 C   0  0  0  0  0  0  0  0  0  0  0  0
   -2.7467    1.8295   -0.1921 C   0  0  2  0  0  0  0  0  0  0  0  0
   -3.3569    1.3773    1.1445 C   0  0  0  0  0  0  0  0  0  0  0  0
   -3.8998    2.2504   -1.1053 C   0  0  0  0  0  0  0  0  0  0  0  0
    5.6287    0.6332    0.3021 H   0  0  0  0  0  0  0  0  0  0  0  0
    5.6608    2.0853    1.3085 H   0  0  0  0  0  0  0  0  0  0  0  0
    5.3609    0.4846    2.0382 H   0  0  0  0  0  0  0  0  0  0  0  0
    3.4787    1.8455    0.0154 H   0  0  0  0  0  0  0  0  0  0  0  0
    3.2723    1.9162    1.7667 H   0  0  0  0  0  0  0  0  0  0  0  0
    3.8631   -2.7202    0.2665 H   0  0  0  0  0  0  0  0  0  0  0  0
    2.8886   -2.9759   -1.1908 H   0  0  0  0  0  0  0  0  0  0  0  0
    4.4284   -2.1260   -1.3053 H   0  0  0  0  0  0  0  0  0  0  0  0
   -0.4194   -1.5680   -1.2347 H   0  0  0  0  0  0  0  0  0  0  0  0
   -1.3869   -1.9605    0.1818 H   0  0  0  0  0  0  0  0  0  0  0  0
    0.0406    0.7930    0.0060 H   0  0  0  0  0  0  0  0  0  0  0  0
   -1.1763    0.2133    1.1442 H   0  0  0  0  0  0  0  0  0  0  0  0
   -2.5969   -0.0887   -0.9550 H   0  0  0  0  0  0  0  0  0  0  0  0
   -0.4891    0.2206   -2.3301 H   0  0  0  0  0  0  0  0  0  0  0  0
   -0.0961    2.4120   -3.2573 H   0  0  0  0  0  0  0  0  0  0  0  0
   -0.0021    2.5478   -1.4991 H   0  0  0  0  0  0  0  0  0  0  0  0
   -1.4327    3.1295   -2.3702 H   0  0  0  0  0  0  0  0  0  0  0  0
   -1.7499    0.5316   -4.2946 H   0  0  0  0  0  0  0  0  0  0  0  0
   -2.7909   -0.3371   -3.1612 H   0  0  0  0  0  0  0  0  0  0  0  0
   -3.0480    1.3832   -3.4854 H   0  0  0  0  0  0  0  0  0  0  0  0
   -2.0604    2.6656   -0.0194 H   0  0  0  0  0  0  0  0  0  0  0  0
   -4.1522    2.0601    1.4662 H   0  0  0  0  0  0  0  0  0  0  0  0
   -2.6188    1.3895    1.9539 H   0  0  0  0  0  0  0  0  0  0  0  0
   -3.7864    0.3691    1.0743 H   0  0  0  0  0  0  0  0  0  0  0  0
   -4.4979    1.3889   -1.4252 H   0  0  0  0  0  0  0  0  0  0  0  0
   -4.5700    2.9450   -0.5859 H   0  0  0  0  0  0  0  0  0  0  0  0
   -3.5520    2.7877   -1.9908 H   0  0  0  0  0  0  0  0  0  0  0  0
  1  2  1  0
  2  3  1  0
  4  3  1  1
  4  5  1  0
  4  6  2  0
  4  7  1  0
  7  8  1  0
  8  9  1  0
  9 10  1  0
 10 11  1  0
 11 12  1  0
 11 13  1  0
 10 14  1  0
 14 15  1  0
 14 16  1  0
  1 17  1  0
  1 18  1  0
  1 19  1  0
  2 20  1  0
  2 21  1  0
  5 22  1  0
  5 23  1  0
  5 24  1  0
  8 25  1  0
  8 26  1  0
  9 27  1  0
  9 28  1  0
 10 29  1  6
 11 30  1  6
 12 31  1  0
 12 32  1  0
 12 33  1  0
 13 34  1  0
 13 35  1  0
 13 36  1  0
 14 37  1  6
 15 38  1  0
 15 39  1  0
 15 40  1  0
 16 41  1  0
 16 42  1  0
 16 43  1  0
M  CHG  1  10   1
M  END
$$$$
