VX
     RDKit          3D

 43 42  0  0  0  0  0  0  0  0999 V2000
    3.7620    1.9965    2.1536 C   0  0  0  0  0  0  0  0  0  0  0  0
    3.9809    1.0859    0.9633 C   0  0  0  0  0  0  0  0  0  0  0  0
    2.9891    0.0697    0.9816 O   0  0  0  0  0  0  0  0  0  0  0  0
    2.6905   -0.7373   -0.3823 P   0  0  2  0  0  0  0  0  0  0  0  0
    3.5463   -2.2701   -0.6806 C   0  0  0  0  0  0  0  0  0  0  0  0
    1.7083   -0.2156   -1.3938 O   0  0  0  0  0  0  0  0  0  0  0  0
    0.9538   -1.9167    0.6958 S   0  0  0  0  0  0  0  0  0  0  0  0
   -0.1358   -2.4699   -0.6538 C   0  0  0  0  0  0  0  0  0  0  0  0
   -1.5405   -1.8665   -0.5106 C   0  0  0  0  0  0  0  0  0  0  0  0
   -1.5223   -0.3393   -0.4137 N   0  0  1  0  0  0  0  0  0  0  0  0
   -1.2724    0.3665   -1.7550 C   0  0  2  0  0  0  0  0  0  0  0  0
   -0.6984    1.7634   -1.5113 C   0  0  0  0  0  0  0  0  0  0  0  0
   -2.5221    0.4223   -2.6253 C   0  0  0  0  0  0  0  0  0  0  0  0
   -2.6182    0.2670    0.4725 C   0  0  2  0  0  0  0  0  0  0  0  0
   -2.1642    0.2036    1.9316 C   0  0  0  0  0  0  0  0  0  0  0  0
   -3.9762   -0.4078    0.2863 C   0  0  0  0  0  0  0  0  0  0  0  0
    2.7617    2.4405    2.1194 H   0  0  0  0  0  0  0  0  0  0  0  0
    4.5048    2.7990    2.1736 H   0  0  0  0  0  0  0  0  0  0  0  0
    3.8268    1.4313    3.0892 H   0  0  0  0  0  0  0  0  0  0  0  0
    4.9683    0.6176    1.0221 H   0  0  0  0  0  0  0  0  0  0  0  0
    3.9150    1.6609    0.0340 H   0  0  0  0  0  0  0  0  0  0  0  0
    2.9287   -2.9407   -1.2848 H   0  0  0  0  0  0  0  0  0  0  0  0
    3.7793   -2.7749    0.2614 H   0  0  0  0  0  0  0  0  0  0  0  0
    4.4818   -2.0970   -1.2192 H   0  0  0  0  0  0  0  0  0  0  0  0
   -0.2066   -3.5620   -0.6065 H   0  0  0  0  0  0  0  0  0  0  0  0
    0.3060   -2.2215   -1.6213 H   0  0  0  0  0  0  0  0  0  0  0  0
   -1.9859   -2.2512    0.4119 H   0  0  0  0  0  0  0  0  0  0  0  0
   -2.1851   -2.1467   -1.3488 H   0  0  0  0  0  0  0  0  0  0  0  0
   -0.6473   -0.1607    0.1030 H   0  0  0  0  0  0  0  0  0  0  0  0
   -0.5174   -0.2297   -2.2749 H   0  0  0  0  0  0  0  0  0  0  0  0
   -1.4511    2.4631   -1.1353 H   0  0  0  0  0  0  0  0  0  0  0  0
    0.1296    1.7443   -0.7956 H   0  0  0  0  0  0  0  0  0  0  0  0
   -0.3166    2.1793   -2.4506 H   0  0  0  0  0  0  0  0  0  0  0  0
   -2.9557   -0.5697   -2.7814 H   0  0  0  0  0  0  0  0  0  0  0  0
   -3.2882    1.0790   -2.2016 H   0  0  0  0  0  0  0  0  0  0  0  0
   -2.2698    0.8233   -3.6137 H   0  0  0  0  0  0  0  0  0  0  0  0
   -2.7076    1.3211    0.1969 H   0  0  0  0  0  0  0  0  0  0  0  0
   -2.8993    0.6905    2.5816 H   0  0  0  0  0  0  0  0  0  0  0  0
   -1.2089    0.7215    2.0692 H   0  0  0  0  0  0  0  0  0  0  0  0
   -2.0455   -0.8278    2.2786 H   0  0  0  0  0  0  0  0  0  0  0  0
   -3.9973   -1.4221    0.6973 H   0  0  0  0  0  0  0  0  0  0  0  0
   -4.2773   -0.4615   -0.7617 H   0  0  0  0  0  0  0  0  0  0  0  0
   -4.7475    0.1620    0.8168 H   0  0  0  0  0  0  0  0  0  0  0  0
  1  2  1  0
  2  3  1  0
  4  3  1  1
  4  5  1  0
  4  6  2  0
  4  7  1  0
  7  8  1  0
  8  9  1  0
  9 10  1  0
 10 11  1  0
 11 12  1  0
 11 13  1  0
 10 14  1  0
 14 15  1  0
 14 16  1  0
  1 17  1  0
  1 18  1  0
  1 19  1  0
  2 20  1  0
  2 21  1  0
  5 22  1  0
  5 23  1  0
  5 24  1  0
  8 25  1  0
  8 26  1  0
  9 27  1  0
  9 28  1  0
 10 29  1  6
 11 30  1  6
 12 31  1  0
 12 32  1  0
 12 33  1  0
 13 34  1  0
 13 35  1  0
 13 36  1  0
 14 37  1  1
 15 38  1  0
 15 39  1  0
 15 40  1  0
 16 41  1  0
 16 42  1  0
 16 43  1  0
M  CHG  1  10   1
M  END
$$$$
