VX
     RDKit          3D

 43 42  0  0  0  0  0  0  0  0999 V2000
    2.9894    2.4645    0.9591 C   0  0  0  0  0  0  0  0  0  0  0  0
    3.8360    1.2077    0.9330 C   0  0  0  0  0  0  0  0  0  0  0  0
    2.9899    0.0690    0.9821 O   0  0  0  0  0  0  0  0  0  0  0  0
    2.6897   -0.7366   -0.3828 P   0  0  2  0  0  0  0  0  0  0  0  0
    3.5464   -2.2697   -0.6800 C   0  0  0  0  0  0  0  0  0  0  0  0
    1.7082   -0.2160   -1.3945 O   0  0  0  0  0  0  0  0  0  0  0  0
    0.9530   -1.9160    0.6953 S   0  0  0  0  0  0  0  0  0  0  0  0
   -0.1896   -2.4351   -0.6276 C   0  0  0  0  0  0  0  0  0  0  0  0
   -0.9753   -1.2726   -1.2537 C   0  0  0  0  0  0  0  0  0  0  0  0
   -1.4677   -0.2665   -0.2044 N   0  0  1  0  0  0  0  0  0  0  0  0
   -1.3408    1.1797   -0.7114 C   0  0  1  0  0  0  0  0  0  0  0  0
   -2.4710    1.5393   -1.6657 C   0  0  0  0  0  0  0  0  0  0  0  0
   -1.2318    2.1435    0.4682 C   0  0  0  0  0  0  0  0  0  0  0  0
   -2.7675   -0.5944    0.5467 C   0  0  2  0  0  0  0  0  0  0  0  0
   -2.4496   -1.3552    1.8320 C   0  0  0  0  0  0  0  0  0  0  0  0
   -3.7819   -1.3493   -0.3054 C   0  0  0  0  0  0  0  0  0  0  0  0
    2.3593    2.4896    1.8547 H   0  0  0  0  0  0  0  0  0  0  0  0
    3.6194    3.3585    0.9453 H   0  0  0  0  0  0  0  0  0  0  0  0
    2.3157    2.4970    0.0964 H   0  0  0  0  0  0  0  0  0  0  0  0
    4.4928    1.1775    1.8079 H   0  0  0  0  0  0  0  0  0  0  0  0
    4.4665    1.1878    0.0383 H   0  0  0  0  0  0  0  0  0  0  0  0
    3.7678   -2.7786    0.2620 H   0  0  0  0  0  0  0  0  0  0  0  0
    4.4890   -2.0997   -1.2070 H   0  0  0  0  0  0  0  0  0  0  0  0
    2.9307   -2.9346   -1.2928 H   0  0  0  0  0  0  0  0  0  0  0  0
    0.3784   -2.9583   -1.4032 H   0  0  0  0  0  0  0  0  0  0  0  0
   -0.8871   -3.1604   -0.1982 H   0  0  0  0  0  0  0  0  0  0  0  0
   -0.3380   -0.7375   -1.9603 H   0  0  0  0  0  0  0  0  0  0  0  0
   -1.8260   -1.6261   -1.8412 H   0  0  0  0  0  0  0  0  0  0  0  0
   -0.7233   -0.3170    0.5095 H   0  0  0  0  0  0  0  0  0  0  0  0
   -0.3896    1.2328   -1.2512 H   0  0  0  0  0  0  0  0  0  0  0  0
   -2.2978    2.5322   -2.0952 H   0  0  0  0  0  0  0  0  0  0  0  0
   -3.4426    1.5704   -1.1637 H   0  0  0  0  0  0  0  0  0  0  0  0
   -2.5309    0.8300   -2.4980 H   0  0  0  0  0  0  0  0  0  0  0  0
   -0.9979    3.1518    0.1082 H   0  0  0  0  0  0  0  0  0  0  0  0
   -0.4293    1.8428    1.1501 H   0  0  0  0  0  0  0  0  0  0  0  0
   -2.1594    2.2155    1.0424 H   0  0  0  0  0  0  0  0  0  0  0  0
   -3.2109    0.3603    0.8408 H   0  0  0  0  0  0  0  0  0  0  0  0
   -2.0604   -2.3566    1.6316 H   0  0  0  0  0  0  0  0  0  0  0  0
   -1.7230   -0.8127    2.4460 H   0  0  0  0  0  0  0  0  0  0  0  0
   -3.3586   -1.4776    2.4323 H   0  0  0  0  0  0  0  0  0  0  0  0
   -3.4541   -2.3720   -0.5208 H   0  0  0  0  0  0  0  0  0  0  0  0
   -4.7359   -1.4302    0.2294 H   0  0  0  0  0  0  0  0  0  0  0  0
   -3.9841   -0.8394   -1.2514 H   0  0  0  0  0  0  0  0  0  0  0  0
  1  2  1  0
  2  3  1  0
  4  3  1  1
  4  5  1  0
  4  6  2  0
  4  7  1  0
  7  8  1  0
  8  9  1  0
  9 10  1  0
 10 11  1  0
 11 12  1  0
 11 13  1  0
 10 14  1  0
 14 15  1  0
 14 16  1  0
  1 17  1  0
  1 18  1  0
  1 19  1  0
  2 20  1  0
  2 21  1  0
  5 22  1  0
  5 23  1  0
  5 24  1  0
  8 25  1  0
  8 26  1  0
  9 27  1  0
  9 28  1  0
 10 29  1  6
 11 30  1  1
 12 31  1  0
 12 32  1  0
 12 33  1  0
 13 34  1  0
 13 35  1  0
 13 36  1  0
 14 37  1  6
 15 38  1  0
 15 39  1  0
 15 40  1  0
 16 41  1  0
 16 42  1  0
 16 43  1  0
M  CHG  1  10   1
M  END
$$$$
