VX
     RDKit          3D

 43 42  0  0  0  0  0  0  0  0999 V2000
    4.7327   -0.0573    2.5943 C   0  0  0  0  0  0  0  0  0  0  0  0
    3.3798   -0.5855    2.1648 C   0  0  0  0  0  0  0  0  0  0  0  0
    2.9789    0.0824    0.9790 O   0  0  0  0  0  0  0  0  0  0  0  0
    2.6974   -0.7444   -0.3790 P   0  0  2  0  0  0  0  0  0  0  0  0
    3.5467   -2.2792   -0.6898 C   0  0  0  0  0  0  0  0  0  0  0  0
    1.7112   -0.2122   -1.3853 O   0  0  0  0  0  0  0  0  0  0  0  0
    0.9607   -1.9239    0.6991 S   0  0  0  0  0  0  0  0  0  0  0  0
   -0.5411   -1.1638    0.0146 C   0  0  0  0  0  0  0  0  0  0  0  0
   -0.6437    0.3251    0.3814 C   0  0  0  0  0  0  0  0  0  0  0  0
   -1.7750    1.0120   -0.4247 N   0  0  2  0  0  0  0  0  0  0  0  0
   -1.2112    1.3977   -1.8182 C   0  0  1  0  0  0  0  0  0  0  0  0
   -2.2793    1.2671   -2.9003 C   0  0  0  0  0  0  0  0  0  0  0  0
   -0.5002    2.7463   -1.8121 C   0  0  0  0  0  0  0  0  0  0  0  0
   -2.5069    2.1039    0.3868 C   0  0  2  0  0  0  0  0  0  0  0  0
   -3.1386    1.4858    1.6449 C   0  0  0  0  0  0  0  0  0  0  0  0
   -3.6411    2.7368   -0.4194 C   0  0  0  0  0  0  0  0  0  0  0  0
    5.0603   -0.5330    3.5227 H   0  0  0  0  0  0  0  0  0  0  0  0
    5.4837   -0.2418    1.8193 H   0  0  0  0  0  0  0  0  0  0  0  0
    4.6932    1.0263    2.7473 H   0  0  0  0  0  0  0  0  0  0  0  0
    3.4208   -1.6688    2.0198 H   0  0  0  0  0  0  0  0  0  0  0  0
    2.6325   -0.3780    2.9369 H   0  0  0  0  0  0  0  0  0  0  0  0
    3.7260   -2.8395    0.2312 H   0  0  0  0  0  0  0  0  0  0  0  0
    2.9528   -2.9110   -1.3565 H   0  0  0  0  0  0  0  0  0  0  0  0
    4.5108   -2.0903   -1.1704 H   0  0  0  0  0  0  0  0  0  0  0  0
   -1.4087   -1.7004    0.4133 H   0  0  0  0  0  0  0  0  0  0  0  0
   -0.5371   -1.3221   -1.0672 H   0  0  0  0  0  0  0  0  0  0  0  0
   -0.8670    0.4066    1.4449 H   0  0  0  0  0  0  0  0  0  0  0  0
    0.2685    0.8988    0.2033 H   0  0  0  0  0  0  0  0  0  0  0  0
   -2.4841    0.2880   -0.5975 H   0  0  0  0  0  0  0  0  0  0  0  0
   -0.4675    0.6326   -2.0567 H   0  0  0  0  0  0  0  0  0  0  0  0
   -1.8053    1.2777   -3.8887 H   0  0  0  0  0  0  0  0  0  0  0  0
   -3.0025    2.0834   -2.8971 H   0  0  0  0  0  0  0  0  0  0  0  0
   -2.8233    0.3211   -2.8106 H   0  0  0  0  0  0  0  0  0  0  0  0
   -1.1838    3.5872   -1.6783 H   0  0  0  0  0  0  0  0  0  0  0  0
    0.2597    2.8004   -1.0269 H   0  0  0  0  0  0  0  0  0  0  0  0
    0.0107    2.9010   -2.7692 H   0  0  0  0  0  0  0  0  0  0  0  0
   -1.7614    2.8551    0.6680 H   0  0  0  0  0  0  0  0  0  0  0  0
   -3.8302    2.1914    2.1200 H   0  0  0  0  0  0  0  0  0  0  0  0
   -3.7011    0.5765    1.4067 H   0  0  0  0  0  0  0  0  0  0  0  0
   -2.3969    1.2443    2.4101 H   0  0  0  0  0  0  0  0  0  0  0  0
   -4.2497    3.3902    0.2168 H   0  0  0  0  0  0  0  0  0  0  0  0
   -4.3074    1.9775   -0.8423 H   0  0  0  0  0  0  0  0  0  0  0  0
   -3.2735    3.3751   -1.2240 H   0  0  0  0  0  0  0  0  0  0  0  0
  1  2  1  0
  2  3  1  0
  4  3  1  1
  4  5  1  0
  4  6  2  0
  4  7  1  0
  7  8  1  0
  8  9  1  0
  9 10  1  0
 10 11  1  0
 11 12  1  0
 11 13  1  0
 10 14  1  0
 14 15  1  0
 14 16  1  0
  1 17  1  0
  1 18  1  0
  1 19  1  0
  2 20  1  0
  2 21  1  0
  5 22  1  0
  5 23  1  0
  5 24  1  0
  8 25  1  0
  8 26  1  0
  9 27  1  0
  9 28  1  0
 10 29  1  6
 11 30  1  1
 12 31  1  0
 12 32  1  0
 12 33  1  0
 13 34  1  0
 13 35  1  0
 13 36  1  0
 14 37  1  6
 15 38  1  0
 15 39  1  0
 15 40  1  0
 16 41  1  0
 16 42  1  0
 16 43  1  0
M  CHG  1  10   1
M  END
$$$$
