VX
     RDKit          3D

 43 42  0  0  0  0  0  0  0  0999 V2000
    3.7066    2.0930    2.0486 C   0  0  0  0  0  0  0  0  0  0  0  0
    4.0022    1.0704    0.9647 C   0  0  0  0  0  0  0  0  0  0  0  0
    2.9786    0.0846    0.9811 O   0  0  0  0  0  0  0  0  0  0  0  0
    2.6970   -0.7452   -0.3805 P   0  0  2  0  0  0  0  0  0  0  0  0
    3.5455   -2.2789   -0.6915 C   0  0  0  0  0  0  0  0  0  0  0  0
    1.7131   -0.2139   -1.3843 O   0  0  0  0  0  0  0  0  0  0  0  0
    0.9603   -1.9247    0.6976 S   0  0  0  0  0  0  0  0  0  0  0  0
   -0.4937   -0.8755    0.4288 C   0  0  0  0  0  0  0  0  0  0  0  0
   -0.2931    0.5364    0.9911 C   0  0  0  0  0  0  0  0  0  0  0  0
   -1.5890    1.3668    0.8367 N   0  0  1  0  0  0  0  0  0  0  0  0
   -2.2798    1.6229    2.1954 C   0  0  2  0  0  0  0  0  0  0  0  0
   -2.6741    0.2865    2.8348 C   0  0  0  0  0  0  0  0  0  0  0  0
   -3.5396    2.4736    2.0221 C   0  0  0  0  0  0  0  0  0  0  0  0
   -1.4044    2.6131   -0.0500 C   0  0  2  0  0  0  0  0  0  0  0  0
   -1.0061    2.2010   -1.4673 C   0  0  0  0  0  0  0  0  0  0  0  0
   -0.4304    3.6129    0.5682 C   0  0  0  0  0  0  0  0  0  0  0  0
    4.4753    2.8711    2.0711 H   0  0  0  0  0  0  0  0  0  0  0  0
    3.6611    1.6113    3.0353 H   0  0  0  0  0  0  0  0  0  0  0  0
    2.7320    2.5675    1.8778 H   0  0  0  0  0  0  0  0  0  0  0  0
    4.0437    1.5627   -0.0170 H   0  0  0  0  0  0  0  0  0  0  0  0
    4.9638    0.5791    1.1563 H   0  0  0  0  0  0  0  0  0  0  0  0
    2.9257   -2.9389   -1.3059 H   0  0  0  0  0  0  0  0  0  0  0  0
    3.7737   -2.7979    0.2446 H   0  0  0  0  0  0  0  0  0  0  0  0
    4.4834   -2.1061   -1.2261 H   0  0  0  0  0  0  0  0  0  0  0  0
   -1.3479   -1.3660    0.9042 H   0  0  0  0  0  0  0  0  0  0  0  0
   -0.6993   -0.8317   -0.6456 H   0  0  0  0  0  0  0  0  0  0  0  0
    0.5097    1.0576    0.4705 H   0  0  0  0  0  0  0  0  0  0  0  0
   -0.0298    0.5248    2.0539 H   0  0  0  0  0  0  0  0  0  0  0  0
   -2.2549    0.7862    0.3092 H   0  0  0  0  0  0  0  0  0  0  0  0
   -1.5567    2.1479    2.8305 H   0  0  0  0  0  0  0  0  0  0  0  0
   -3.2232    0.4549    3.7685 H   0  0  0  0  0  0  0  0  0  0  0  0
   -1.8052   -0.3257    3.0897 H   0  0  0  0  0  0  0  0  0  0  0  0
   -3.3195   -0.2982    2.1699 H   0  0  0  0  0  0  0  0  0  0  0  0
   -4.1111    2.5142    2.9565 H   0  0  0  0  0  0  0  0  0  0  0  0
   -4.1974    2.0672    1.2452 H   0  0  0  0  0  0  0  0  0  0  0  0
   -3.2959    3.5098    1.7698 H   0  0  0  0  0  0  0  0  0  0  0  0
   -2.3919    3.0762   -0.1361 H   0  0  0  0  0  0  0  0  0  0  0  0
   -1.0371    3.0724   -2.1314 H   0  0  0  0  0  0  0  0  0  0  0  0
   -1.6996    1.4543   -1.8712 H   0  0  0  0  0  0  0  0  0  0  0  0
    0.0076    1.7948   -1.5207 H   0  0  0  0  0  0  0  0  0  0  0  0
    0.5863    3.2150    0.6463 H   0  0  0  0  0  0  0  0  0  0  0  0
   -0.3776    4.5162   -0.0493 H   0  0  0  0  0  0  0  0  0  0  0  0
   -0.7522    3.9248    1.5671 H   0  0  0  0  0  0  0  0  0  0  0  0
  1  2  1  0
  2  3  1  0
  4  3  1  1
  4  5  1  0
  4  6  2  0
  4  7  1  0
  7  8  1  0
  8  9  1  0
  9 10  1  0
 10 11  1  0
 11 12  1  0
 11 13  1  0
 10 14  1  0
 14 15  1  0
 14 16  1  0
  1 17  1  0
  1 18  1  0
  1 19  1  0
  2 20  1  0
  2 21  1  0
  5 22  1  0
  5 23  1  0
  5 24  1  0
  8 25  1  0
  8 26  1  0
  9 27  1  0
  9 28  1  0
 10 29  1  1
 11 30  1  1
 12 31  1  0
 12 32  1  0
 12 33  1  0
 13 34  1  0
 13 35  1  0
 13 36  1  0
 14 37  1  1
 15 38  1  0
 15 39  1  0
 15 40  1  0
 16 41  1  0
 16 42  1  0
 16 43  1  0
M  CHG  1  10   1
M  END
$$$$
