VX
     RDKit          3D

 43 42  0  0  0  0  0  0  0  0999 V2000
    2.9617    2.4478    1.0720 C   0  0  0  0  0  0  0  0  0  0  0  0
    3.8260    1.2114    0.9339 C   0  0  0  0  0  0  0  0  0  0  0  0
    3.0009    0.0568    0.9865 O   0  0  0  0  0  0  0  0  0  0  0  0
    2.6824   -0.7289   -0.3862 P   0  0  2  0  0  0  0  0  0  0  0  0
    3.5473   -2.2626   -0.6707 C   0  0  0  0  0  0  0  0  0  0  0  0
    1.7036   -0.2186   -1.4047 O   0  0  0  0  0  0  0  0  0  0  0  0
    0.9456   -1.9084    0.6919 S   0  0  0  0  0  0  0  0  0  0  0  0
   -0.0023   -2.6407   -0.6754 C   0  0  0  0  0  0  0  0  0  0  0  0
   -1.5068   -2.7309   -0.3749 C   0  0  0  0  0  0  0  0  0  0  0  0
   -2.0602   -1.4536    0.2882 N   0  0  2  0  0  0  0  0  0  0  0  0
   -2.9086   -1.7655    1.5470 C   0  0  2  0  0  0  0  0  0  0  0  0
   -3.5623   -0.5034    2.1169 C   0  0  0  0  0  0  0  0  0  0  0  0
   -2.0262   -2.3713    2.6457 C   0  0  0  0  0  0  0  0  0  0  0  0
   -2.7042   -0.4602   -0.6959 C   0  0  2  0  0  0  0  0  0  0  0  0
   -3.9884   -1.0156   -1.3090 C   0  0  0  0  0  0  0  0  0  0  0  0
   -1.7145   -0.0222   -1.7701 C   0  0  0  0  0  0  0  0  0  0  0  0
    2.2283    2.5018    0.2610 H   0  0  0  0  0  0  0  0  0  0  0  0
    3.5724    3.3546    1.0556 H   0  0  0  0  0  0  0  0  0  0  0  0
    2.3965    2.4196    2.0096 H   0  0  0  0  0  0  0  0  0  0  0  0
    4.5369    1.1544    1.7637 H   0  0  0  0  0  0  0  0  0  0  0  0
    4.3987    1.2414    0.0014 H   0  0  0  0  0  0  0  0  0  0  0  0
    3.7597   -2.7682    0.2756 H   0  0  0  0  0  0  0  0  0  0  0  0
    4.4957   -2.0869   -1.1854 H   0  0  0  0  0  0  0  0  0  0  0  0
    2.9433   -2.9320   -1.2901 H   0  0  0  0  0  0  0  0  0  0  0  0
    0.1621   -2.0495   -1.5779 H   0  0  0  0  0  0  0  0  0  0  0  0
    0.3936   -3.6405   -0.8809 H   0  0  0  0  0  0  0  0  0  0  0  0
   -2.0717   -2.9261   -1.2898 H   0  0  0  0  0  0  0  0  0  0  0  0
   -1.7015   -3.5755    0.2910 H   0  0  0  0  0  0  0  0  0  0  0  0
   -1.2252   -0.9690    0.6587 H   0  0  0  0  0  0  0  0  0  0  0  0
   -3.6763   -2.4840    1.2391 H   0  0  0  0  0  0  0  0  0  0  0  0
   -4.0460   -0.7205    3.0763 H   0  0  0  0  0  0  0  0  0  0  0  0
   -2.8250    0.2886    2.2887 H   0  0  0  0  0  0  0  0  0  0  0  0
   -4.3475   -0.1151    1.4622 H   0  0  0  0  0  0  0  0  0  0  0  0
   -2.6294   -2.5971    3.5325 H   0  0  0  0  0  0  0  0  0  0  0  0
   -1.2399   -1.6748    2.9549 H   0  0  0  0  0  0  0  0  0  0  0  0
   -1.5538   -3.3098    2.3468 H   0  0  0  0  0  0  0  0  0  0  0  0
   -2.9342    0.4362   -0.1127 H   0  0  0  0  0  0  0  0  0  0  0  0
   -4.7010   -1.3478   -0.5494 H   0  0  0  0  0  0  0  0  0  0  0  0
   -4.4860   -0.2366   -1.8986 H   0  0  0  0  0  0  0  0  0  0  0  0
   -3.7997   -1.8546   -1.9852 H   0  0  0  0  0  0  0  0  0  0  0  0
   -1.4919   -0.8233   -2.4807 H   0  0  0  0  0  0  0  0  0  0  0  0
   -0.7809    0.3322   -1.3246 H   0  0  0  0  0  0  0  0  0  0  0  0
   -2.1338    0.8087   -2.3492 H   0  0  0  0  0  0  0  0  0  0  0  0
  1  2  1  0
  2  3  1  0
  4  3  1  1
  4  5  1  0
  4  6  2  0
  4  7  1  0
  7  8  1  0
  8  9  1  0
  9 10  1  0
 10 11  1  0
 11 12  1  0
 11 13  1  0
 10 14  1  0
 14 15  1  0
 14 16  1  0
  1 17  1  0
  1 18  1  0
  1 19  1  0
  2 20  1  0
  2 21  1  0
  5 22  1  0
  5 23  1  0
  5 24  1  0
  8 25  1  0
  8 26  1  0
  9 27  1  0
  9 28  1  0
 10 29  1  1
 11 30  1  6
 12 31  1  0
 12 32  1  0
 12 33  1  0
 13 34  1  0
 13 35  1  0
 13 36  1  0
 14 37  1  6
 15 38  1  0
 15 39  1  0
 15 40  1  0
 16 41  1  0
 16 42  1  0
 16 43  1  0
M  CHG  1  10   1
M  END
$$$$
