VX
     RDKit          3D

 43 42  0  0  0  0  0  0  0  0999 V2000
    3.8121    1.9342    2.2248 C   0  0  0  0  0  0  0  0  0  0  0  0
    3.9192    1.1438    0.9364 C   0  0  0  0  0  0  0  0  0  0  0  0
    2.9906    0.0705    0.9848 O   0  0  0  0  0  0  0  0  0  0  0  0
    2.6892   -0.7368   -0.3838 P   0  0  2  0  0  0  0  0  0  0  0  0
    3.5463   -2.2703   -0.6808 C   0  0  0  0  0  0  0  0  0  0  0  0
    1.7081   -0.2167   -1.3954 O   0  0  0  0  0  0  0  0  0  0  0  0
    0.9525   -1.9163    0.6943 S   0  0  0  0  0  0  0  0  0  0  0  0
   -0.3651   -0.6737    0.7248 C   0  0  0  0  0  0  0  0  0  0  0  0
   -1.6231   -1.2414    1.3850 C   0  0  0  0  0  0  0  0  0  0  0  0
   -2.7517   -0.1858    1.4274 N   0  0  2  0  0  0  0  0  0  0  0  0
   -3.5558   -0.2878    2.7317 C   0  0  1  0  0  0  0  0  0  0  0  0
   -4.5061    0.8873    2.9110 C   0  0  0  0  0  0  0  0  0  0  0  0
   -4.2501   -1.6327    2.9273 C   0  0  0  0  0  0  0  0  0  0  0  0
   -3.4412   -0.0385    0.0597 C   0  0  1  0  0  0  0  0  0  0  0  0
   -4.6216   -0.9744   -0.1394 C   0  0  0  0  0  0  0  0  0  0  0  0
   -3.7950    1.4222   -0.2115 C   0  0  0  0  0  0  0  0  0  0  0  0
    4.0180    1.2948    3.0904 H   0  0  0  0  0  0  0  0  0  0  0  0
    4.5148    2.7719    2.2289 H   0  0  0  0  0  0  0  0  0  0  0  0
    2.7966    2.3250    2.3528 H   0  0  0  0  0  0  0  0  0  0  0  0
    4.9298    0.7411    0.8242 H   0  0  0  0  0  0  0  0  0  0  0  0
    3.6972    1.7918    0.0824 H   0  0  0  0  0  0  0  0  0  0  0  0
    2.9336   -2.9382   -1.2932 H   0  0  0  0  0  0  0  0  0  0  0  0
    4.4876   -2.0969   -1.2092 H   0  0  0  0  0  0  0  0  0  0  0  0
    3.7699   -2.7801    0.2607 H   0  0  0  0  0  0  0  0  0  0  0  0
   -0.5636   -0.3626   -0.3035 H   0  0  0  0  0  0  0  0  0  0  0  0
   -0.0065    0.2018    1.2763 H   0  0  0  0  0  0  0  0  0  0  0  0
   -1.3983   -1.5146    2.4225 H   0  0  0  0  0  0  0  0  0  0  0  0
   -2.0202   -2.1163    0.8592 H   0  0  0  0  0  0  0  0  0  0  0  0
   -2.2495    0.7034    1.5515 H   0  0  0  0  0  0  0  0  0  0  0  0
   -2.7945   -0.1922    3.5177 H   0  0  0  0  0  0  0  0  0  0  0  0
   -3.9973    1.8417    2.7421 H   0  0  0  0  0  0  0  0  0  0  0  0
   -4.8928    0.9024    3.9369 H   0  0  0  0  0  0  0  0  0  0  0  0
   -5.3727    0.8238    2.2488 H   0  0  0  0  0  0  0  0  0  0  0  0
   -3.6034   -2.4805    2.6864 H   0  0  0  0  0  0  0  0  0  0  0  0
   -5.1700   -1.7240    2.3460 H   0  0  0  0  0  0  0  0  0  0  0  0
   -4.5413   -1.7425    3.9785 H   0  0  0  0  0  0  0  0  0  0  0  0
   -2.6834   -0.3114   -0.6824 H   0  0  0  0  0  0  0  0  0  0  0  0
   -4.9419   -0.9521   -1.1883 H   0  0  0  0  0  0  0  0  0  0  0  0
   -5.4879   -0.6779    0.4559 H   0  0  0  0  0  0  0  0  0  0  0  0
   -4.3601   -2.0114    0.0921 H   0  0  0  0  0  0  0  0  0  0  0  0
   -4.6410    1.7693    0.3850 H   0  0  0  0  0  0  0  0  0  0  0  0
   -2.9424    2.0811   -0.0195 H   0  0  0  0  0  0  0  0  0  0  0  0
   -4.0770    1.5509   -1.2625 H   0  0  0  0  0  0  0  0  0  0  0  0
  1  2  1  0
  2  3  1  0
  4  3  1  1
  4  5  1  0
  4  6  2  0
  4  7  1  0
  7  8  1  0
  8  9  1  0
  9 10  1  0
 10 11  1  0
 11 12  1  0
 11 13  1  0
 10 14  1  0
 14 15  1  0
 14 16  1  0
  1 17  1  0
  1 18  1  0
  1 19  1  0
  2 20  1  0
  2 21  1  0
  5 22  1  0
  5 23  1  0
  5 24  1  0
  8 25  1  0
  8 26  1  0
  9 27  1  0
  9 28  1  0
 10 29  1  1
 11 30  1  6
 12 31  1  0
 12 32  1  0
 12 33  1  0
 13 34  1  0
 13 35  1  0
 13 36  1  0
 14 37  1  6
 15 38  1  0
 15 39  1  0
 15 40  1  0
 16 41  1  0
 16 42  1  0
 16 43  1  0
M  CHG  1  10   1
M  END
$$$$
