VX
     RDKit          3D

 43 42  0  0  0  0  0  0  0  0999 V2000
    3.9653    1.7998    2.3023 C   0  0  0  0  0  0  0  0  0  0  0  0
    3.8899    1.1687    0.9274 C   0  0  0  0  0  0  0  0  0  0  0  0
    2.9875    0.0732    0.9827 O   0  0  0  0  0  0  0  0  0  0  0  0
    2.6916   -0.7389   -0.3824 P   0  0  2  0  0  0  0  0  0  0  0  0
    3.5462   -2.2721   -0.6829 C   0  0  0  0  0  0  0  0  0  0  0  0
    1.7090   -0.2155   -1.3926 O   0  0  0  0  0  0  0  0  0  0  0  0
    0.9548   -1.9184    0.6957 S   0  0  0  0  0  0  0  0  0  0  0  0
   -0.0164   -0.6304    1.5326 C   0  0  0  0  0  0  0  0  0  0  0  0
   -0.5904    0.4796    0.6384 C   0  0  0  0  0  0  0  0  0  0  0  0
   -1.9212    0.1513   -0.0654 N   0  0  1  0  0  0  0  0  0  0  0  0
   -1.7028   -0.7748   -1.2847 C   0  0  1  0  0  0  0  0  0  0  0  0
   -2.1603   -2.2106   -1.0508 C   0  0  0  0  0  0  0  0  0  0  0  0
   -2.3436   -0.1544   -2.5266 C   0  0  0  0  0  0  0  0  0  0  0  0
   -3.1197   -0.1388    0.8589 C   0  0  1  0  0  0  0  0  0  0  0  0
   -3.1380    0.8198    2.0562 C   0  0  0  0  0  0  0  0  0  0  0  0
   -4.4346    0.0491    0.0972 C   0  0  0  0  0  0  0  0  0  0  0  0
    4.3055    1.0691    3.0434 H   0  0  0  0  0  0  0  0  0  0  0  0
    2.9765    2.1426    2.6244 H   0  0  0  0  0  0  0  0  0  0  0  0
    4.6529    2.6504    2.3055 H   0  0  0  0  0  0  0  0  0  0  0  0
    4.8788    0.8156    0.6217 H   0  0  0  0  0  0  0  0  0  0  0  0
    3.5300    1.9001    0.1977 H   0  0  0  0  0  0  0  0  0  0  0  0
    4.4728   -2.1040   -1.2381 H   0  0  0  0  0  0  0  0  0  0  0  0
    3.7955   -2.7690    0.2586 H   0  0  0  0  0  0  0  0  0  0  0  0
    2.9207   -2.9485   -1.2725 H   0  0  0  0  0  0  0  0  0  0  0  0
   -0.8036   -1.1248    2.1080 H   0  0  0  0  0  0  0  0  0  0  0  0
    0.6583   -0.1663    2.2600 H   0  0  0  0  0  0  0  0  0  0  0  0
   -0.7905    1.3669    1.2480 H   0  0  0  0  0  0  0  0  0  0  0  0
    0.1024    0.8233   -0.1321 H   0  0  0  0  0  0  0  0  0  0  0  0
   -2.1557    1.0588   -0.4888 H   0  0  0  0  0  0  0  0  0  0  0  0
   -0.6276   -0.7831   -1.4768 H   0  0  0  0  0  0  0  0  0  0  0  0
   -1.7741   -2.8548   -1.8491 H   0  0  0  0  0  0  0  0  0  0  0  0
   -3.2473   -2.3156   -1.0678 H   0  0  0  0  0  0  0  0  0  0  0  0
   -1.7985   -2.6159   -0.1035 H   0  0  0  0  0  0  0  0  0  0  0  0
   -3.4328   -0.1063   -2.4618 H   0  0  0  0  0  0  0  0  0  0  0  0
   -1.9683    0.8607   -2.6957 H   0  0  0  0  0  0  0  0  0  0  0  0
   -2.0952   -0.7472   -3.4138 H   0  0  0  0  0  0  0  0  0  0  0  0
   -3.0215   -1.1664    1.2201 H   0  0  0  0  0  0  0  0  0  0  0  0
   -3.1153    1.8663    1.7327 H   0  0  0  0  0  0  0  0  0  0  0  0
   -4.0476    0.6756    2.6502 H   0  0  0  0  0  0  0  0  0  0  0  0
   -2.2988    0.6464    2.7358 H   0  0  0  0  0  0  0  0  0  0  0  0
   -5.2893   -0.0445    0.7770 H   0  0  0  0  0  0  0  0  0  0  0  0
   -4.5820   -0.7026   -0.6792 H   0  0  0  0  0  0  0  0  0  0  0  0
   -4.4895    1.0392   -0.3689 H   0  0  0  0  0  0  0  0  0  0  0  0
  1  2  1  0
  2  3  1  0
  4  3  1  1
  4  5  1  0
  4  6  2  0
  4  7  1  0
  7  8  1  0
  8  9  1  0
  9 10  1  0
 10 11  1  0
 11 12  1  0
 11 13  1  0
 10 14  1  0
 14 15  1  0
 14 16  1  0
  1 17  1  0
  1 18  1  0
  1 19  1  0
  2 20  1  0
  2 21  1  0
  5 22  1  0
  5 23  1  0
  5 24  1  0
  8 25  1  0
  8 26  1  0
  9 27  1  0
  9 28  1  0
 10 29  1  1
 11 30  1  1
 12 31  1  0
 12 32  1  0
 12 33  1  0
 13 34  1  0
 13 35  1  0
 13 36  1  0
 14 37  1  1
 15 38  1  0
 15 39  1  0
 15 40  1  0
 16 41  1  0
 16 42  1  0
 16 43  1  0
M  CHG  1  10   1
M  END
$$$$
