VX
     RDKit          3D

 43 42  0  0  0  0  0  0  0  0999 V2000
    3.2224    2.4243    1.3538 C   0  0  0  0  0  0  0  0  0  0  0  0
    3.9228    1.1439    0.9478 C   0  0  0  0  0  0  0  0  0  0  0  0
    2.9800    0.0815    0.9799 O   0  0  0  0  0  0  0  0  0  0  0  0
    2.6969   -0.7443   -0.3797 P   0  0  2  0  0  0  0  0  0  0  0  0
    3.5460   -2.2775   -0.6892 C   0  0  0  0  0  0  0  0  0  0  0  0
    1.7113   -0.2131   -1.3863 O   0  0  0  0  0  0  0  0  0  0  0  0
    0.9602   -1.9237    0.6984 S   0  0  0  0  0  0  0  0  0  0  0  0
   -0.5292   -1.0575    0.1283 C   0  0  0  0  0  0  0  0  0  0  0  0
   -0.5510    0.4002    0.6017 C   0  0  0  0  0  0  0  0  0  0  0  0
   -1.6194    1.2066   -0.1863 N   0  0  1  0  0  0  0  0  0  0  0  0
   -2.8087    1.6096    0.7068 C   0  0  2  0  0  0  0  0  0  0  0  0
   -3.4650    0.3440    1.2812 C   0  0  0  0  0  0  0  0  0  0  0  0
   -3.8762    2.3766   -0.0696 C   0  0  0  0  0  0  0  0  0  0  0  0
   -0.9047    2.2898   -1.0218 C   0  0  2  0  0  0  0  0  0  0  0  0
   -0.5733    3.5214   -0.1892 C   0  0  0  0  0  0  0  0  0  0  0  0
   -1.6596    2.6054   -2.3089 C   0  0  0  0  0  0  0  0  0  0  0  0
    2.7740    2.3195    2.3451 H   0  0  0  0  0  0  0  0  0  0  0  0
    2.4096    2.6564    0.6588 H   0  0  0  0  0  0  0  0  0  0  0  0
    3.9239    3.2630    1.3696 H   0  0  0  0  0  0  0  0  0  0  0  0
    4.3610    1.2530   -0.0494 H   0  0  0  0  0  0  0  0  0  0  0  0
    4.7264    0.9080    1.6523 H   0  0  0  0  0  0  0  0  0  0  0  0
    2.9292   -2.9324   -1.3122 H   0  0  0  0  0  0  0  0  0  0  0  0
    3.7616   -2.7982    0.2478 H   0  0  0  0  0  0  0  0  0  0  0  0
    4.4915   -2.1059   -1.2110 H   0  0  0  0  0  0  0  0  0  0  0  0
   -0.5528   -1.1119   -0.9648 H   0  0  0  0  0  0  0  0  0  0  0  0
   -1.4063   -1.5978    0.4988 H   0  0  0  0  0  0  0  0  0  0  0  0
    0.4105    0.8955    0.4548 H   0  0  0  0  0  0  0  0  0  0  0  0
   -0.7731    0.4843    1.6705 H   0  0  0  0  0  0  0  0  0  0  0  0
   -2.0093    0.5640   -0.8879 H   0  0  0  0  0  0  0  0  0  0  0  0
   -2.4073    2.2280    1.5187 H   0  0  0  0  0  0  0  0  0  0  0  0
   -2.8092   -0.1841    1.9780 H   0  0  0  0  0  0  0  0  0  0  0  0
   -4.3706    0.5988    1.8452 H   0  0  0  0  0  0  0  0  0  0  0  0
   -3.7512   -0.3530    0.4854 H   0  0  0  0  0  0  0  0  0  0  0  0
   -3.5527    3.3906   -0.3129 H   0  0  0  0  0  0  0  0  0  0  0  0
   -4.7848    2.4947    0.5348 H   0  0  0  0  0  0  0  0  0  0  0  0
   -4.1609    1.8562   -0.9908 H   0  0  0  0  0  0  0  0  0  0  0  0
    0.0338    1.8297   -1.3515 H   0  0  0  0  0  0  0  0  0  0  0  0
    0.0430    4.2125   -0.7745 H   0  0  0  0  0  0  0  0  0  0  0  0
   -0.0043    3.2590    0.7092 H   0  0  0  0  0  0  0  0  0  0  0  0
   -1.4653    4.0704    0.1235 H   0  0  0  0  0  0  0  0  0  0  0  0
   -2.5232    3.2537   -2.1580 H   0  0  0  0  0  0  0  0  0  0  0  0
   -0.9956    3.1383   -2.9999 H   0  0  0  0  0  0  0  0  0  0  0  0
   -1.9896    1.6925   -2.8139 H   0  0  0  0  0  0  0  0  0  0  0  0
  1  2  1  0
  2  3  1  0
  4  3  1  1
  4  5  1  0
  4  6  2  0
  4  7  1  0
  7  8  1  0
  8  9  1  0
  9 10  1  0
 10 11  1  0
 11 12  1  0
 11 13  1  0
 10 14  1  0
 14 15  1  0
 14 16  1  0
  1 17  1  0
  1 18  1  0
  1 19  1  0
  2 20  1  0
  2 21  1  0
  5 22  1  0
  5 23  1  0
  5 24  1  0
  8 25  1  0
  8 26  1  0
  9 27  1  0
  9 28  1  0
 10 29  1  1
 11 30  1  1
 12 31  1  0
 12 32  1  0
 12 33  1  0
 13 34  1  0
 13 35  1  0
 13 36  1  0
 14 37  1  1
 15 38  1  0
 15 39  1  0
 15 40  1  0
 16 41  1  0
 16 42  1  0
 16 43  1  0
M  CHG  1  10   1
M  END
$$$$
