VX
     RDKit          3D

 43 42  0  0  0  0  0  0  0  0999 V2000
    4.9540    0.9329    2.0443 C   0  0  0  0  0  0  0  0  0  0  0  0
    3.9250    1.1409    0.9487 C   0  0  0  0  0  0  0  0  0  0  0  0
    2.9965    0.0642    0.9875 O   0  0  0  0  0  0  0  0  0  0  0  0
    2.6851   -0.7322   -0.3854 P   0  0  2  0  0  0  0  0  0  0  0  0
    3.5478   -2.2680   -0.6758 C   0  0  0  0  0  0  0  0  0  0  0  0
    1.7048   -0.2173   -1.4014 O   0  0  0  0  0  0  0  0  0  0  0  0
    0.9484   -1.9117    0.6927 S   0  0  0  0  0  0  0  0  0  0  0  0
   -0.2490   -0.6001    1.0538 C   0  0  0  0  0  0  0  0  0  0  0  0
   -1.6525   -1.1930    1.2011 C   0  0  0  0  0  0  0  0  0  0  0  0
   -2.6654   -0.2784    1.9231 N   0  0  2  0  0  0  0  0  0  0  0  0
   -2.6509    1.1903    1.4361 C   0  0  1  0  0  0  0  0  0  0  0  0
   -3.0022    1.2314   -0.0556 C   0  0  0  0  0  0  0  0  0  0  0  0
   -3.6639    2.0457    2.2007 C   0  0  0  0  0  0  0  0  0  0  0  0
   -2.7433   -0.4904    3.4506 C   0  0  2  0  0  0  0  0  0  0  0  0
   -1.4383   -0.1448    4.1513 C   0  0  0  0  0  0  0  0  0  0  0  0
   -3.2128   -1.9103    3.7733 C   0  0  0  0  0  0  0  0  0  0  0  0
    5.6823    1.7502    2.0626 H   0  0  0  0  0  0  0  0  0  0  0  0
    4.4682    0.8710    3.0214 H   0  0  0  0  0  0  0  0  0  0  0  0
    5.4899   -0.0077    1.8939 H   0  0  0  0  0  0  0  0  0  0  0  0
    3.3744    2.0713    1.1162 H   0  0  0  0  0  0  0  0  0  0  0  0
    4.4172    1.2064   -0.0279 H   0  0  0  0  0  0  0  0  0  0  0  0
    4.4823   -2.0977   -1.2175 H   0  0  0  0  0  0  0  0  0  0  0  0
    3.7912   -2.7657    0.2715 H   0  0  0  0  0  0  0  0  0  0  0  0
    2.9314   -2.9465   -1.2730 H   0  0  0  0  0  0  0  0  0  0  0  0
   -0.2340    0.1075    0.2212 H   0  0  0  0  0  0  0  0  0  0  0  0
    0.0873   -0.0660    1.9416 H   0  0  0  0  0  0  0  0  0  0  0  0
   -2.0846   -1.3948    0.2138 H   0  0  0  0  0  0  0  0  0  0  0  0
   -1.6403   -2.1442    1.7394 H   0  0  0  0  0  0  0  0  0  0  0  0
   -3.5779   -0.6287    1.5995 H   0  0  0  0  0  0  0  0  0  0  0  0
   -1.6438    1.5829    1.6079 H   0  0  0  0  0  0  0  0  0  0  0  0
   -2.2584    0.7229   -0.6740 H   0  0  0  0  0  0  0  0  0  0  0  0
   -3.9766    0.7680   -0.2485 H   0  0  0  0  0  0  0  0  0  0  0  0
   -3.0479    2.2695   -0.4091 H   0  0  0  0  0  0  0  0  0  0  0  0
   -4.6567    1.5841    2.2122 H   0  0  0  0  0  0  0  0  0  0  0  0
   -3.3418    2.2199    3.2323 H   0  0  0  0  0  0  0  0  0  0  0  0
   -3.7599    3.0351    1.7393 H   0  0  0  0  0  0  0  0  0  0  0  0
   -3.5349    0.1748    3.8127 H   0  0  0  0  0  0  0  0  0  0  0  0
   -1.0956    0.8634    3.8963 H   0  0  0  0  0  0  0  0  0  0  0  0
   -1.5776   -0.1775    5.2377 H   0  0  0  0  0  0  0  0  0  0  0  0
   -0.6431   -0.8583    3.9127 H   0  0  0  0  0  0  0  0  0  0  0  0
   -4.0949   -2.1842    3.1848 H   0  0  0  0  0  0  0  0  0  0  0  0
   -2.4355   -2.6645    3.6009 H   0  0  0  0  0  0  0  0  0  0  0  0
   -3.4874   -1.9786    4.8303 H   0  0  0  0  0  0  0  0  0  0  0  0
  1  2  1  0
  2  3  1  0
  4  3  1  1
  4  5  1  0
  4  6  2  0
  4  7  1  0
  7  8  1  0
  8  9  1  0
  9 10  1  0
 10 11  1  0
 11 12  1  0
 11 13  1  0
 10 14  1  0
 14 15  1  0
 14 16  1  0
  1 17  1  0
  1 18  1  0
  1 19  1  0
  2 20  1  0
  2 21  1  0
  5 22  1  0
  5 23  1  0
  5 24  1  0
  8 25  1  0
  8 26  1  0
  9 27  1  0
  9 28  1  0
 10 29  1  6
 11 30  1  1
 12 31  1  0
 12 32  1  0
 12 33  1  0
 13 34  1  0
 13 35  1  0
 13 36  1  0
 14 37  1  6
 15 38  1  0
 15 39  1  0
 15 40  1  0
 16 41  1  0
 16 42  1  0
 16 43  1  0
M  CHG  1  10   1
M  END
$$$$
