VX
     RDKit          3D

 43 42  0  0  0  0  0  0  0  0999 V2000
    4.0044    1.7722    2.3093 C   0  0  0  0  0  0  0  0  0  0  0  0
    3.8470    1.1997    0.9159 C   0  0  0  0  0  0  0  0  0  0  0  0
    2.9936    0.0669    0.9858 O   0  0  0  0  0  0  0  0  0  0  0  0
    2.6872   -0.7346   -0.3846 P   0  0  2  0  0  0  0  0  0  0  0  0
    3.5466   -2.2683   -0.6781 C   0  0  0  0  0  0  0  0  0  0  0  0
    1.7067   -0.2173   -1.3982 O   0  0  0  0  0  0  0  0  0  0  0  0
    0.9505   -1.9141    0.6934 S   0  0  0  0  0  0  0  0  0  0  0  0
   -0.3448   -0.6490    0.7903 C   0  0  0  0  0  0  0  0  0  0  0  0
   -1.6429   -1.2593    1.3106 C   0  0  0  0  0  0  0  0  0  0  0  0
   -2.8389   -0.2882    1.2419 N   0  0  2  0  0  0  0  0  0  0  0  0
   -3.2713    0.1184   -0.1857 C   0  0  1  0  0  0  0  0  0  0  0  0
   -3.2796   -1.0962   -1.1214 C   0  0  0  0  0  0  0  0  0  0  0  0
   -4.6847    0.7039   -0.1635 C   0  0  0  0  0  0  0  0  0  0  0  0
   -2.6941    0.8264    2.3010 C   0  0  1  0  0  0  0  0  0  0  0  0
   -2.1975    2.1485    1.7266 C   0  0  0  0  0  0  0  0  0  0  0  0
   -3.9943    0.9728    3.0889 C   0  0  0  0  0  0  0  0  0  0  0  0
    4.6523    2.6529    2.2990 H   0  0  0  0  0  0  0  0  0  0  0  0
    4.4326    1.0259    2.9864 H   0  0  0  0  0  0  0  0  0  0  0  0
    3.0304    2.0549    2.7223 H   0  0  0  0  0  0  0  0  0  0  0  0
    3.4044    1.9474    0.2509 H   0  0  0  0  0  0  0  0  0  0  0  0
    4.8223    0.9033    0.5199 H   0  0  0  0  0  0  0  0  0  0  0  0
    3.7791   -2.7695    0.2660 H   0  0  0  0  0  0  0  0  0  0  0  0
    4.4831   -2.0972   -1.2156 H   0  0  0  0  0  0  0  0  0  0  0  0
    2.9311   -2.9418   -1.2811 H   0  0  0  0  0  0  0  0  0  0  0  0
   -0.4819   -0.2221   -0.2057 H   0  0  0  0  0  0  0  0  0  0  0  0
    0.0107    0.1424    1.4553 H   0  0  0  0  0  0  0  0  0  0  0  0
   -1.9362   -2.1590    0.7603 H   0  0  0  0  0  0  0  0  0  0  0  0
   -1.5494   -1.5592    2.3618 H   0  0  0  0  0  0  0  0  0  0  0  0
   -3.6154   -0.8750    1.5765 H   0  0  0  0  0  0  0  0  0  0  0  0
   -2.5513    0.8553   -0.5538 H   0  0  0  0  0  0  0  0  0  0  0  0
   -2.2701   -1.4689   -1.3171 H   0  0  0  0  0  0  0  0  0  0  0  0
   -3.7001   -0.8280   -2.0974 H   0  0  0  0  0  0  0  0  0  0  0  0
   -3.8824   -1.9147   -0.7128 H   0  0  0  0  0  0  0  0  0  0  0  0
   -5.3916    0.0283    0.3305 H   0  0  0  0  0  0  0  0  0  0  0  0
   -4.7255    1.6728    0.3366 H   0  0  0  0  0  0  0  0  0  0  0  0
   -5.0471    0.8745   -1.1837 H   0  0  0  0  0  0  0  0  0  0  0  0
   -1.9414    0.4705    3.0149 H   0  0  0  0  0  0  0  0  0  0  0  0
   -2.9450    2.6470    1.1051 H   0  0  0  0  0  0  0  0  0  0  0  0
   -1.9562    2.8392    2.5427 H   0  0  0  0  0  0  0  0  0  0  0  0
   -1.2887    2.0229    1.1323 H   0  0  0  0  0  0  0  0  0  0  0  0
   -4.3084    0.0118    3.5104 H   0  0  0  0  0  0  0  0  0  0  0  0
   -4.8161    1.3629    2.4855 H   0  0  0  0  0  0  0  0  0  0  0  0
   -3.8507    1.6652    3.9260 H   0  0  0  0  0  0  0  0  0  0  0  0
  1  2  1  0
  2  3  1  0
  4  3  1  1
  4  5  1  0
  4  6  2  0
  4  7  1  0
  7  8  1  0
  8  9  1  0
  9 10  1  0
 10 11  1  0
 11 12  1  0
 11 13  1  0
 10 14  1  0
 14 15  1  0
 14 16  1  0
  1 17  1  0
  1 18  1  0
  1 19  1  0
  2 20  1  0
  2 21  1  0
  5 22  1  0
  5 23  1  0
  5 24  1  0
  8 25  1  0
  8 26  1  0
  9 27  1  0
  9 28  1  0
 10 29  1  1
 11 30  1  1
 12 31  1  0
 12 32  1  0
 12 33  1  0
 13 34  1  0
 13 35  1  0
 13 36  1  0
 14 37  1  1
 15 38  1  0
 15 39  1  0
 15 40  1  0
 16 41  1  0
 16 42  1  0
 16 43  1  0
M  CHG  1  10   1
M  END
$$$$
