VX
     RDKit          3D

 43 42  0  0  0  0  0  0  0  0999 V2000
    3.9175    1.8734    2.2435 C   0  0  0  0  0  0  0  0  0  0  0  0
    3.9921    1.0814    0.9553 C   0  0  0  0  0  0  0  0  0  0  0  0
    2.9788    0.0841    0.9807 O   0  0  0  0  0  0  0  0  0  0  0  0
    2.6966   -0.7450   -0.3810 P   0  0  2  0  0  0  0  0  0  0  0  0
    3.5447   -2.2776   -0.6913 C   0  0  0  0  0  0  0  0  0  0  0  0
    1.7141   -0.2148   -1.3836 O   0  0  0  0  0  0  0  0  0  0  0  0
    0.9598   -1.9244    0.6971 S   0  0  0  0  0  0  0  0  0  0  0  0
   -0.5691   -1.2503   -0.0323 C   0  0  0  0  0  0  0  0  0  0  0  0
   -0.7557    0.2431    0.2632 C   0  0  0  0  0  0  0  0  0  0  0  0
   -0.5559    0.5659    1.7530 N   0  0  1  0  0  0  0  0  0  0  0  0
    0.0973    1.9429    1.9430 C   0  0  2  0  0  0  0  0  0  0  0  0
    0.7684    2.0264    3.3131 C   0  0  0  0  0  0  0  0  0  0  0  0
   -0.8996    3.0696    1.7052 C   0  0  0  0  0  0  0  0  0  0  0  0
   -1.7138    0.2505    2.7136 C   0  0  1  0  0  0  0  0  0  0  0  0
   -3.0873    0.3286    2.0572 C   0  0  0  0  0  0  0  0  0  0  0  0
   -1.4808   -1.1065    3.3735 C   0  0  0  0  0  0  0  0  0  0  0  0
    4.0199    1.2111    3.1094 H   0  0  0  0  0  0  0  0  0  0  0  0
    4.7044    2.6310    2.2833 H   0  0  0  0  0  0  0  0  0  0  0  0
    2.9463    2.3696    2.3350 H   0  0  0  0  0  0  0  0  0  0  0  0
    3.8438    1.7415    0.0954 H   0  0  0  0  0  0  0  0  0  0  0  0
    4.9707    0.5991    0.8722 H   0  0  0  0  0  0  0  0  0  0  0  0
    2.9212   -2.9408   -1.2975 H   0  0  0  0  0  0  0  0  0  0  0  0
    4.4800   -2.1082   -1.2311 H   0  0  0  0  0  0  0  0  0  0  0  0
    3.7757   -2.7895    0.2465 H   0  0  0  0  0  0  0  0  0  0  0  0
   -0.5495   -1.4151   -1.1136 H   0  0  0  0  0  0  0  0  0  0  0  0
   -1.4118   -1.8241    0.3629 H   0  0  0  0  0  0  0  0  0  0  0  0
   -1.7391    0.6029   -0.0513 H   0  0  0  0  0  0  0  0  0  0  0  0
   -0.0198    0.8267   -0.2951 H   0  0  0  0  0  0  0  0  0  0  0  0
    0.2015   -0.0844    2.0193 H   0  0  0  0  0  0  0  0  0  0  0  0
    0.8941    2.0031    1.1931 H   0  0  0  0  0  0  0  0  0  0  0  0
    0.0465    2.0943    4.1318 H   0  0  0  0  0  0  0  0  0  0  0  0
    1.4121    1.1603    3.4935 H   0  0  0  0  0  0  0  0  0  0  0  0
    1.3968    2.9223    3.3682 H   0  0  0  0  0  0  0  0  0  0  0  0
   -1.3609    2.9930    0.7158 H   0  0  0  0  0  0  0  0  0  0  0  0
   -1.6951    3.0845    2.4560 H   0  0  0  0  0  0  0  0  0  0  0  0
   -0.3911    4.0390    1.7540 H   0  0  0  0  0  0  0  0  0  0  0  0
   -1.6827    1.0017    3.5074 H   0  0  0  0  0  0  0  0  0  0  0  0
   -3.2500    1.2928    1.5665 H   0  0  0  0  0  0  0  0  0  0  0  0
   -3.2414   -0.4705    1.3256 H   0  0  0  0  0  0  0  0  0  0  0  0
   -3.8697    0.2187    2.8162 H   0  0  0  0  0  0  0  0  0  0  0  0
   -0.4955   -1.1481    3.8495 H   0  0  0  0  0  0  0  0  0  0  0  0
   -1.5566   -1.9314    2.6600 H   0  0  0  0  0  0  0  0  0  0  0  0
   -2.2304   -1.2816    4.1536 H   0  0  0  0  0  0  0  0  0  0  0  0
  1  2  1  0
  2  3  1  0
  4  3  1  1
  4  5  1  0
  4  6  2  0
  4  7  1  0
  7  8  1  0
  8  9  1  0
  9 10  1  0
 10 11  1  0
 11 12  1  0
 11 13  1  0
 10 14  1  0
 14 15  1  0
 14 16  1  0
  1 17  1  0
  1 18  1  0
  1 19  1  0
  2 20  1  0
  2 21  1  0
  5 22  1  0
  5 23  1  0
  5 24  1  0
  8 25  1  0
  8 26  1  0
  9 27  1  0
  9 28  1  0
 10 29  1  6
 11 30  1  6
 12 31  1  0
 12 32  1  0
 12 33  1  0
 13 34  1  0
 13 35  1  0
 13 36  1  0
 14 37  1  1
 15 38  1  0
 15 39  1  0
 15 40  1  0
 16 41  1  0
 16 42  1  0
 16 43  1  0
M  CHG  1  10   1
M  END
$$$$
