VX
     RDKit          3D

 43 42  0  0  0  0  0  0  0  0999 V2000
    3.8761    1.8960    2.2398 C   0  0  0  0  0  0  0  0  0  0  0  0
    3.9597    1.1093    0.9484 C   0  0  0  0  0  0  0  0  0  0  0  0
    2.9830    0.0788    0.9818 O   0  0  0  0  0  0  0  0  0  0  0  0
    2.6943   -0.7420   -0.3814 P   0  0  2  0  0  0  0  0  0  0  0  0
    3.5459   -2.2755   -0.6871 C   0  0  0  0  0  0  0  0  0  0  0  0
    1.7111   -0.2147   -1.3884 O   0  0  0  0  0  0  0  0  0  0  0  0
    0.9575   -1.9214    0.6967 S   0  0  0  0  0  0  0  0  0  0  0  0
   -0.1780   -0.6394    1.2985 C   0  0  0  0  0  0  0  0  0  0  0  0
   -0.5938    0.3418    0.1962 C   0  0  0  0  0  0  0  0  0  0  0  0
   -1.6882    1.3152    0.6613 N   0  0  2  0  0  0  0  0  0  0  0  0
   -3.1144    0.7494    0.8385 C   0  0  2  0  0  0  0  0  0  0  0  0
   -3.3729    0.4955    2.3225 C   0  0  0  0  0  0  0  0  0  0  0  0
   -3.3997   -0.4801   -0.0162 C   0  0  0  0  0  0  0  0  0  0  0  0
   -1.7016    2.6450   -0.1247 C   0  0  1  0  0  0  0  0  0  0  0  0
   -0.4576    3.4713    0.2055 C   0  0  0  0  0  0  0  0  0  0  0  0
   -1.8638    2.4151   -1.6220 C   0  0  0  0  0  0  0  0  0  0  0  0
    2.8722    2.3116    2.3781 H   0  0  0  0  0  0  0  0  0  0  0  0
    4.0706    1.2452    3.0986 H   0  0  0  0  0  0  0  0  0  0  0  0
    4.6034    2.7132    2.2481 H   0  0  0  0  0  0  0  0  0  0  0  0
    3.7768    1.7664    0.0932 H   0  0  0  0  0  0  0  0  0  0  0  0
    4.9525    0.6621    0.8475 H   0  0  0  0  0  0  0  0  0  0  0  0
    3.7965   -2.7749    0.2531 H   0  0  0  0  0  0  0  0  0  0  0  0
    4.4711   -2.1049   -1.2435 H   0  0  0  0  0  0  0  0  0  0  0  0
    2.9186   -2.9504   -1.2770 H   0  0  0  0  0  0  0  0  0  0  0  0
   -1.0384   -1.1652    1.7133 H   0  0  0  0  0  0  0  0  0  0  0  0
    0.3060   -0.0992    2.1184 H   0  0  0  0  0  0  0  0  0  0  0  0
   -0.9445   -0.1531   -0.7134 H   0  0  0  0  0  0  0  0  0  0  0  0
    0.2659    0.9631   -0.0512 H   0  0  0  0  0  0  0  0  0  0  0  0
   -1.3952    1.6076    1.6024 H   0  0  0  0  0  0  0  0  0  0  0  0
   -3.8064    1.5394    0.5256 H   0  0  0  0  0  0  0  0  0  0  0  0
   -2.7290   -0.2861    2.7327 H   0  0  0  0  0  0  0  0  0  0  0  0
   -4.4112    0.1829    2.4787 H   0  0  0  0  0  0  0  0  0  0  0  0
   -3.2140    1.4073    2.9088 H   0  0  0  0  0  0  0  0  0  0  0  0
   -3.2145   -0.2889   -1.0769 H   0  0  0  0  0  0  0  0  0  0  0  0
   -4.4546   -0.7632    0.0788 H   0  0  0  0  0  0  0  0  0  0  0  0
   -2.8115   -1.3497    0.2886 H   0  0  0  0  0  0  0  0  0  0  0  0
   -2.5636    3.2071    0.2551 H   0  0  0  0  0  0  0  0  0  0  0  0
   -0.5731    4.4889   -0.1844 H   0  0  0  0  0  0  0  0  0  0  0  0
    0.4528    3.0613   -0.2411 H   0  0  0  0  0  0  0  0  0  0  0  0
   -0.3071    3.5490    1.2871 H   0  0  0  0  0  0  0  0  0  0  0  0
   -1.9288    3.3755   -2.1461 H   0  0  0  0  0  0  0  0  0  0  0  0
   -1.0191    1.8676   -2.0505 H   0  0  0  0  0  0  0  0  0  0  0  0
   -2.7810    1.8636   -1.8461 H   0  0  0  0  0  0  0  0  0  0  0  0
  1  2  1  0
  2  3  1  0
  4  3  1  1
  4  5  1  0
  4  6  2  0
  4  7  1  0
  7  8  1  0
  8  9  1  0
  9 10  1  0
 10 11  1  0
 11 12  1  0
 11 13  1  0
 10 14  1  0
 14 15  1  0
 14 16  1  0
  1 17  1  0
  1 18  1  0
  1 19  1  0
  2 20  1  0
  2 21  1  0
  5 22  1  0
  5 23  1  0
  5 24  1  0
  8 25  1  0
  8 26  1  0
  9 27  1  0
  9 28  1  0
 10 29  1  1
 11 30  1  6
 12 31  1  0
 12 32  1  0
 12 33  1  0
 13 34  1  0
 13 35  1  0
 13 36  1  0
 14 37  1  1
 15 38  1  0
 15 39  1  0
 15 40  1  0
 16 41  1  0
 16 42  1  0
 16 43  1  0
M  CHG  1  10   1
M  END
$$$$
