VX
     RDKit          3D

 43 42  0  0  0  0  0  0  0  0999 V2000
    3.0769    2.4580    1.0736 C   0  0  0  0  0  0  0  0  0  0  0  0
    3.8770    1.1782    0.9374 C   0  0  0  0  0  0  0  0  0  0  0  0
    2.9911    0.0692    0.9843 O   0  0  0  0  0  0  0  0  0  0  0  0
    2.6891   -0.7361   -0.3833 P   0  0  2  0  0  0  0  0  0  0  0  0
    3.5472   -2.2707   -0.6798 C   0  0  0  0  0  0  0  0  0  0  0  0
    1.7069   -0.2158   -1.3964 O   0  0  0  0  0  0  0  0  0  0  0  0
    0.9523   -1.9155    0.6948 S   0  0  0  0  0  0  0  0  0  0  0  0
   -0.1401   -0.5744    1.2492 C   0  0  0  0  0  0  0  0  0  0  0  0
   -1.6310   -0.8392    0.9970 C   0  0  0  0  0  0  0  0  0  0  0  0
   -2.1497   -0.2920   -0.3569 N   0  0  1  0  0  0  0  0  0  0  0  0
   -1.5555   -0.9943   -1.5895 C   0  0  2  0  0  0  0  0  0  0  0  0
   -1.8884   -0.2635   -2.8845 C   0  0  0  0  0  0  0  0  0  0  0  0
   -1.8706   -2.4834   -1.6839 C   0  0  0  0  0  0  0  0  0  0  0  0
   -3.6604    0.0026   -0.2719 C   0  0  1  0  0  0  0  0  0  0  0  0
   -4.0330    1.2458   -1.0758 C   0  0  0  0  0  0  0  0  0  0  0  0
   -4.5343   -1.1949   -0.5965 C   0  0  0  0  0  0  0  0  0  0  0  0
    2.3643    2.5619    0.2487 H   0  0  0  0  0  0  0  0  0  0  0  0
    2.4904    2.4521    1.9988 H   0  0  0  0  0  0  0  0  0  0  0  0
    3.7369    3.3299    1.0752 H   0  0  0  0  0  0  0  0  0  0  0  0
    4.5823    1.0827    1.7688 H   0  0  0  0  0  0  0  0  0  0  0  0
    4.4522    1.1848    0.0056 H   0  0  0  0  0  0  0  0  0  0  0  0
    3.7668   -2.7806    0.2617 H   0  0  0  0  0  0  0  0  0  0  0  0
    2.9380   -2.9366   -1.2967 H   0  0  0  0  0  0  0  0  0  0  0  0
    4.4914   -2.0996   -1.2011 H   0  0  0  0  0  0  0  0  0  0  0  0
    0.1667    0.3724    0.7955 H   0  0  0  0  0  0  0  0  0  0  0  0
    0.0254   -0.4820    2.3279 H   0  0  0  0  0  0  0  0  0  0  0  0
   -2.1727   -0.2794    1.7668 H   0  0  0  0  0  0  0  0  0  0  0  0
   -1.9257   -1.8872    1.0855 H   0  0  0  0  0  0  0  0  0  0  0  0
   -1.7261    0.6443   -0.4117 H   0  0  0  0  0  0  0  0  0  0  0  0
   -0.4799   -0.8857   -1.4640 H   0  0  0  0  0  0  0  0  0  0  0  0
   -1.2400   -0.6226   -3.6931 H   0  0  0  0  0  0  0  0  0  0  0  0
   -1.7211    0.8147   -2.7937 H   0  0  0  0  0  0  0  0  0  0  0  0
   -2.9170   -0.4439   -3.2055 H   0  0  0  0  0  0  0  0  0  0  0  0
   -1.7574   -3.0060   -0.7335 H   0  0  0  0  0  0  0  0  0  0  0  0
   -1.1791   -2.9572   -2.3882 H   0  0  0  0  0  0  0  0  0  0  0  0
   -2.8738   -2.6802   -2.0687 H   0  0  0  0  0  0  0  0  0  0  0  0
   -3.8484    0.2728    0.7746 H   0  0  0  0  0  0  0  0  0  0  0  0
   -4.0676    1.0640   -2.1500 H   0  0  0  0  0  0  0  0  0  0  0  0
   -3.3390    2.0696   -0.8823 H   0  0  0  0  0  0  0  0  0  0  0  0
   -5.0332    1.5896   -0.7890 H   0  0  0  0  0  0  0  0  0  0  0  0
   -4.5841   -1.3842   -1.6731 H   0  0  0  0  0  0  0  0  0  0  0  0
   -4.1981   -2.1006   -0.0843 H   0  0  0  0  0  0  0  0  0  0  0  0
   -5.5637   -1.0004   -0.2695 H   0  0  0  0  0  0  0  0  0  0  0  0
  1  2  1  0
  2  3  1  0
  4  3  1  1
  4  5  1  0
  4  6  2  0
  4  7  1  0
  7  8  1  0
  8  9  1  0
  9 10  1  0
 10 11  1  0
 11 12  1  0
 11 13  1  0
 10 14  1  0
 14 15  1  0
 14 16  1  0
  1 17  1  0
  1 18  1  0
  1 19  1  0
  2 20  1  0
  2 21  1  0
  5 22  1  0
  5 23  1  0
  5 24  1  0
  8 25  1  0
  8 26  1  0
  9 27  1  0
  9 28  1  0
 10 29  1  1
 11 30  1  1
 12 31  1  0
 12 32  1  0
 12 33  1  0
 13 34  1  0
 13 35  1  0
 13 36  1  0
 14 37  1  1
 15 38  1  0
 15 39  1  0
 15 40  1  0
 16 41  1  0
 16 42  1  0
 16 43  1  0
M  CHG  1  10   1
M  END
$$$$
