VX
     RDKit          3D

 43 42  0  0  0  0  0  0  0  0999 V2000
    3.9196    1.8222    2.2990 C   0  0  0  0  0  0  0  0  0  0  0  0
    3.8952    1.1640    0.9352 C   0  0  0  0  0  0  0  0  0  0  0  0
    2.9945    0.0648    0.9849 O   0  0  0  0  0  0  0  0  0  0  0  0
    2.6860   -0.7332   -0.3851 P   0  0  2  0  0  0  0  0  0  0  0  0
    3.5465   -2.2669   -0.6768 C   0  0  0  0  0  0  0  0  0  0  0  0
    1.7072   -0.2180   -1.3982 O   0  0  0  0  0  0  0  0  0  0  0  0
    0.9493   -1.9127    0.6930 S   0  0  0  0  0  0  0  0  0  0  0  0
   -0.1430   -0.5552    1.2193 C   0  0  0  0  0  0  0  0  0  0  0  0
   -1.5802   -1.0125    1.5032 C   0  0  0  0  0  0  0  0  0  0  0  0
   -2.0898   -2.0398    0.4721 N   0  0  2  0  0  0  0  0  0  0  0  0
   -2.8958   -1.4275   -0.6870 C   0  0  1  0  0  0  0  0  0  0  0  0
   -4.2269   -0.8462   -0.2121 C   0  0  0  0  0  0  0  0  0  0  0  0
   -2.0732   -0.3904   -1.4487 C   0  0  0  0  0  0  0  0  0  0  0  0
   -2.7404   -3.2714    1.1517 C   0  0  1  0  0  0  0  0  0  0  0  0
   -3.3969   -4.2077    0.1335 C   0  0  0  0  0  0  0  0  0  0  0  0
   -1.6746   -4.0751    1.9078 C   0  0  0  0  0  0  0  0  0  0  0  0
    2.9210    2.1687    2.5780 H   0  0  0  0  0  0  0  0  0  0  0  0
    4.6076    2.6709    2.3156 H   0  0  0  0  0  0  0  0  0  0  0  0
    4.2340    1.1033    3.0631 H   0  0  0  0  0  0  0  0  0  0  0  0
    4.8973    0.8046    0.6754 H   0  0  0  0  0  0  0  0  0  0  0  0
    3.5628    1.8800    0.1724 H   0  0  0  0  0  0  0  0  0  0  0  0
    3.7802   -2.7644    0.2659 H   0  0  0  0  0  0  0  0  0  0  0  0
    2.9275   -2.9389   -1.2768 H   0  0  0  0  0  0  0  0  0  0  0  0
    4.4807   -2.0986   -1.2184 H   0  0  0  0  0  0  0  0  0  0  0  0
   -0.1385    0.2137    0.4423 H   0  0  0  0  0  0  0  0  0  0  0  0
    0.2815   -0.0932    2.1160 H   0  0  0  0  0  0  0  0  0  0  0  0
   -1.6307   -1.4704    2.4948 H   0  0  0  0  0  0  0  0  0  0  0  0
   -2.2646   -0.1620    1.5216 H   0  0  0  0  0  0  0  0  0  0  0  0
   -1.2300   -2.4139    0.0358 H   0  0  0  0  0  0  0  0  0  0  0  0
   -3.0806   -2.2468   -1.3900 H   0  0  0  0  0  0  0  0  0  0  0  0
   -4.8529   -0.5980   -1.0793 H   0  0  0  0  0  0  0  0  0  0  0  0
   -4.0963    0.0768    0.3613 H   0  0  0  0  0  0  0  0  0  0  0  0
   -4.7932   -1.5514    0.4041 H   0  0  0  0  0  0  0  0  0  0  0  0
   -1.9405    0.5333   -0.8753 H   0  0  0  0  0  0  0  0  0  0  0  0
   -2.5863   -0.1158   -2.3802 H   0  0  0  0  0  0  0  0  0  0  0  0
   -1.0882   -0.7831   -1.7215 H   0  0  0  0  0  0  0  0  0  0  0  0
   -3.4906   -2.8856    1.8503 H   0  0  0  0  0  0  0  0  0  0  0  0
   -2.6910   -4.5072   -0.6497 H   0  0  0  0  0  0  0  0  0  0  0  0
   -4.2730   -3.7580   -0.3394 H   0  0  0  0  0  0  0  0  0  0  0  0
   -3.7531   -5.1200    0.6271 H   0  0  0  0  0  0  0  0  0  0  0  0
   -1.1714   -3.4938    2.6814 H   0  0  0  0  0  0  0  0  0  0  0  0
   -2.1347   -4.9318    2.4121 H   0  0  0  0  0  0  0  0  0  0  0  0
   -0.9125   -4.4663    1.2269 H   0  0  0  0  0  0  0  0  0  0  0  0
  1  2  1  0
  2  3  1  0
  4  3  1  1
  4  5  1  0
  4  6  2  0
  4  7  1  0
  7  8  1  0
  8  9  1  0
  9 10  1  0
 10 11  1  0
 11 12  1  0
 11 13  1  0
 10 14  1  0
 14 15  1  0
 14 16  1  0
  1 17  1  0
  1 18  1  0
  1 19  1  0
  2 20  1  0
  2 21  1  0
  5 22  1  0
  5 23  1  0
  5 24  1  0
  8 25  1  0
  8 26  1  0
  9 27  1  0
  9 28  1  0
 10 29  1  6
 11 30  1  1
 12 31  1  0
 12 32  1  0
 12 33  1  0
 13 34  1  0
 13 35  1  0
 13 36  1  0
 14 37  1  1
 15 38  1  0
 15 39  1  0
 15 40  1  0
 16 41  1  0
 16 42  1  0
 16 43  1  0
M  CHG  1  10   1
M  END
$$$$
