VX
     RDKit          3D

 43 42  0  0  0  0  0  0  0  0999 V2000
    4.1100    1.6957    2.3230 C   0  0  0  0  0  0  0  0  0  0  0  0
    3.8345    1.2108    0.9125 C   0  0  0  0  0  0  0  0  0  0  0  0
    2.9871    0.0738    0.9828 O   0  0  0  0  0  0  0  0  0  0  0  0
    2.6919   -0.7392   -0.3822 P   0  0  2  0  0  0  0  0  0  0  0  0
    3.5464   -2.2727   -0.6833 C   0  0  0  0  0  0  0  0  0  0  0  0
    1.7089   -0.2152   -1.3924 O   0  0  0  0  0  0  0  0  0  0  0  0
    0.9551   -1.9186    0.6959 S   0  0  0  0  0  0  0  0  0  0  0  0
   -0.2399   -0.6407    1.1743 C   0  0  0  0  0  0  0  0  0  0  0  0
   -0.7068    0.1992   -0.0266 C   0  0  0  0  0  0  0  0  0  0  0  0
   -1.9651    1.0156    0.3093 N   0  0  2  0  0  0  0  0  0  0  0  0
   -3.2497    0.1693    0.3370 C   0  0  2  0  0  0  0  0  0  0  0  0
   -3.8359   -0.0667   -1.0495 C   0  0  0  0  0  0  0  0  0  0  0  0
   -4.2615    0.8156    1.2843 C   0  0  0  0  0  0  0  0  0  0  0  0
   -2.0640    2.3566   -0.4467 C   0  0  1  0  0  0  0  0  0  0  0  0
   -1.2477    3.4027    0.3142 C   0  0  0  0  0  0  0  0  0  0  0  0
   -1.6169    2.2627   -1.9057 C   0  0  0  0  0  0  0  0  0  0  0  0
    3.1732    1.9351    2.8423 H   0  0  0  0  0  0  0  0  0  0  0  0
    4.6086    0.9156    2.9099 H   0  0  0  0  0  0  0  0  0  0  0  0
    4.7444    2.5864    2.3112 H   0  0  0  0  0  0  0  0  0  0  0  0
    3.3315    1.9945    0.3353 H   0  0  0  0  0  0  0  0  0  0  0  0
    4.7744    0.9495    0.4139 H   0  0  0  0  0  0  0  0  0  0  0  0
    4.4892   -2.1039   -1.2112 H   0  0  0  0  0  0  0  0  0  0  0  0
    2.9315   -2.9369   -1.2981 H   0  0  0  0  0  0  0  0  0  0  0  0
    3.7657   -2.7848    0.2589 H   0  0  0  0  0  0  0  0  0  0  0  0
    0.2223    0.0107    1.9241 H   0  0  0  0  0  0  0  0  0  0  0  0
   -1.0726   -1.1521    1.6626 H   0  0  0  0  0  0  0  0  0  0  0  0
    0.0735    0.9270   -0.2572 H   0  0  0  0  0  0  0  0  0  0  0  0
   -0.9389   -0.4027   -0.9114 H   0  0  0  0  0  0  0  0  0  0  0  0
   -1.8311    1.2932    1.2905 H   0  0  0  0  0  0  0  0  0  0  0  0
   -2.9731   -0.7993    0.7634 H   0  0  0  0  0  0  0  0  0  0  0  0
   -4.1999    0.8576   -1.5074 H   0  0  0  0  0  0  0  0  0  0  0  0
   -3.1083   -0.5328   -1.7213 H   0  0  0  0  0  0  0  0  0  0  0  0
   -4.6921   -0.7468   -0.9826 H   0  0  0  0  0  0  0  0  0  0  0  0
   -5.1467    0.1778    1.3845 H   0  0  0  0  0  0  0  0  0  0  0  0
   -4.6022    1.7927    0.9303 H   0  0  0  0  0  0  0  0  0  0  0  0
   -3.8355    0.9457    2.2860 H   0  0  0  0  0  0  0  0  0  0  0  0
   -3.1140    2.6638   -0.4126 H   0  0  0  0  0  0  0  0  0  0  0  0
   -0.1834    3.1462    0.3539 H   0  0  0  0  0  0  0  0  0  0  0  0
   -1.6098    3.5113    1.3439 H   0  0  0  0  0  0  0  0  0  0  0  0
   -1.3372    4.3822   -0.1686 H   0  0  0  0  0  0  0  0  0  0  0  0
   -1.8414    3.2042   -2.4211 H   0  0  0  0  0  0  0  0  0  0  0  0
   -0.5389    2.1003   -2.0039 H   0  0  0  0  0  0  0  0  0  0  0  0
   -2.1288    1.4678   -2.4536 H   0  0  0  0  0  0  0  0  0  0  0  0
  1  2  1  0
  2  3  1  0
  4  3  1  1
  4  5  1  0
  4  6  2  0
  4  7  1  0
  7  8  1  0
  8  9  1  0
  9 10  1  0
 10 11  1  0
 11 12  1  0
 11 13  1  0
 10 14  1  0
 14 15  1  0
 14 16  1  0
  1 17  1  0
  1 18  1  0
  1 19  1  0
  2 20  1  0
  2 21  1  0
  5 22  1  0
  5 23  1  0
  5 24  1  0
  8 25  1  0
  8 26  1  0
  9 27  1  0
  9 28  1  0
 10 29  1  1
 11 30  1  1
 12 31  1  0
 12 32  1  0
 12 33  1  0
 13 34  1  0
 13 35  1  0
 13 36  1  0
 14 37  1  6
 15 38  1  0
 15 39  1  0
 15 40  1  0
 16 41  1  0
 16 42  1  0
 16 43  1  0
M  CHG  1  10   1
M  END
$$$$
