VX
     RDKit          3D

 43 42  0  0  0  0  0  0  0  0999 V2000
    3.9798    1.7708    2.3230 C   0  0  0  0  0  0  0  0  0  0  0  0
    3.8403    1.2015    0.9265 C   0  0  0  0  0  0  0  0  0  0  0  0
    2.9943    0.0635    0.9832 O   0  0  0  0  0  0  0  0  0  0  0  0
    2.6870   -0.7335   -0.3837 P   0  0  2  0  0  0  0  0  0  0  0  0
    3.5469   -2.2667   -0.6759 C   0  0  0  0  0  0  0  0  0  0  0  0
    1.7060   -0.2167   -1.3987 O   0  0  0  0  0  0  0  0  0  0  0  0
    0.9503   -1.9129    0.6944 S   0  0  0  0  0  0  0  0  0  0  0  0
    0.0645   -2.8297   -0.6061 C   0  0  0  0  0  0  0  0  0  0  0  0
   -0.6514   -1.9395   -1.6328 C   0  0  0  0  0  0  0  0  0  0  0  0
   -1.4196   -0.7819   -0.9883 N   0  0  2  0  0  0  0  0  0  0  0  0
   -2.7658   -1.0984   -0.3177 C   0  0  2  0  0  0  0  0  0  0  0  0
   -2.5646   -1.3609    1.1724 C   0  0  0  0  0  0  0  0  0  0  0  0
   -3.5183   -2.2430   -0.9885 C   0  0  0  0  0  0  0  0  0  0  0  0
   -1.4202    0.4625   -1.8963 C   0  0  1  0  0  0  0  0  0  0  0  0
   -2.4413    0.3377   -3.0200 C   0  0  0  0  0  0  0  0  0  0  0  0
   -1.6148    1.7238   -1.0566 C   0  0  0  0  0  0  0  0  0  0  0  0
    3.0002    2.0490    2.7257 H   0  0  0  0  0  0  0  0  0  0  0  0
    4.4032    1.0242    3.0031 H   0  0  0  0  0  0  0  0  0  0  0  0
    4.6250    2.6538    2.3221 H   0  0  0  0  0  0  0  0  0  0  0  0
    4.8214    0.9121    0.5393 H   0  0  0  0  0  0  0  0  0  0  0  0
    3.4002    1.9483    0.2584 H   0  0  0  0  0  0  0  0  0  0  0  0
    2.9288   -2.9443   -1.2717 H   0  0  0  0  0  0  0  0  0  0  0  0
    3.7865   -2.7626    0.2689 H   0  0  0  0  0  0  0  0  0  0  0  0
    4.4794   -2.0959   -1.2203 H   0  0  0  0  0  0  0  0  0  0  0  0
    0.7768   -3.4819   -1.1216 H   0  0  0  0  0  0  0  0  0  0  0  0
   -0.6617   -3.4821   -0.1126 H   0  0  0  0  0  0  0  0  0  0  0  0
   -1.3392   -2.5149   -2.2582 H   0  0  0  0  0  0  0  0  0  0  0  0
    0.0889   -1.5142   -2.3153 H   0  0  0  0  0  0  0  0  0  0  0  0
   -0.7864   -0.4977   -0.2237 H   0  0  0  0  0  0  0  0  0  0  0  0
   -3.3801   -0.1978   -0.4006 H   0  0  0  0  0  0  0  0  0  0  0  0
   -3.5354   -1.4278    1.6765 H   0  0  0  0  0  0  0  0  0  0  0  0
   -2.0420   -2.3021    1.3594 H   0  0  0  0  0  0  0  0  0  0  0  0
   -2.0063   -0.5480    1.6483 H   0  0  0  0  0  0  0  0  0  0  0  0
   -3.0187   -3.2060   -0.8435 H   0  0  0  0  0  0  0  0  0  0  0  0
   -3.6473   -2.0744   -2.0612 H   0  0  0  0  0  0  0  0  0  0  0  0
   -4.5201   -2.3366   -0.5538 H   0  0  0  0  0  0  0  0  0  0  0  0
   -0.4208    0.5243   -2.3381 H   0  0  0  0  0  0  0  0  0  0  0  0
   -2.3419    1.1809   -3.7124 H   0  0  0  0  0  0  0  0  0  0  0  0
   -3.4704    0.3464   -2.6487 H   0  0  0  0  0  0  0  0  0  0  0  0
   -2.2895   -0.5791   -3.5981 H   0  0  0  0  0  0  0  0  0  0  0  0
   -2.6183    1.7950   -0.6280 H   0  0  0  0  0  0  0  0  0  0  0  0
   -1.4652    2.6142   -1.6773 H   0  0  0  0  0  0  0  0  0  0  0  0
   -0.8888    1.7678   -0.2377 H   0  0  0  0  0  0  0  0  0  0  0  0
  1  2  1  0
  2  3  1  0
  4  3  1  1
  4  5  1  0
  4  6  2  0
  4  7  1  0
  7  8  1  0
  8  9  1  0
  9 10  1  0
 10 11  1  0
 11 12  1  0
 11 13  1  0
 10 14  1  0
 14 15  1  0
 14 16  1  0
  1 17  1  0
  1 18  1  0
  1 19  1  0
  2 20  1  0
  2 21  1  0
  5 22  1  0
  5 23  1  0
  5 24  1  0
  8 25  1  0
  8 26  1  0
  9 27  1  0
  9 28  1  0
 10 29  1  1
 11 30  1  1
 12 31  1  0
 12 32  1  0
 12 33  1  0
 13 34  1  0
 13 35  1  0
 13 36  1  0
 14 37  1  6
 15 38  1  0
 15 39  1  0
 15 40  1  0
 16 41  1  0
 16 42  1  0
 16 43  1  0
M  CHG  1  10   1
M  END
$$$$
