VX
     RDKit          3D

 43 42  0  0  0  0  0  0  0  0999 V2000
    3.8451    1.9217    2.2224 C   0  0  0  0  0  0  0  0  0  0  0  0
    3.9738    1.0954    0.9594 C   0  0  0  0  0  0  0  0  0  0  0  0
    2.9825    0.0792    0.9813 O   0  0  0  0  0  0  0  0  0  0  0  0
    2.6953   -0.7427   -0.3806 P   0  0  2  0  0  0  0  0  0  0  0  0
    3.5462   -2.2761   -0.6873 C   0  0  0  0  0  0  0  0  0  0  0  0
    1.7104   -0.2138   -1.3885 O   0  0  0  0  0  0  0  0  0  0  0  0
    0.9585   -1.9221    0.6975 S   0  0  0  0  0  0  0  0  0  0  0  0
   -0.5397   -1.0978    0.0782 C   0  0  0  0  0  0  0  0  0  0  0  0
   -0.5914    0.3629    0.5379 C   0  0  0  0  0  0  0  0  0  0  0  0
   -1.7151    1.2008   -0.0788 N   0  0  2  0  0  0  0  0  0  0  0  0
   -3.0603    1.2366    0.6523 C   0  0  2  0  0  0  0  0  0  0  0  0
   -2.9487    2.1724    1.8587 C   0  0  0  0  0  0  0  0  0  0  0  0
   -3.5497   -0.1414    1.0755 C   0  0  0  0  0  0  0  0  0  0  0  0
   -1.7448    1.1987   -1.6161 C   0  0  1  0  0  0  0  0  0  0  0  0
   -2.7362    0.1923   -2.1892 C   0  0  0  0  0  0  0  0  0  0  0  0
   -2.0518    2.6146   -2.1097 C   0  0  0  0  0  0  0  0  0  0  0  0
    2.8497    2.3736    2.2872 H   0  0  0  0  0  0  0  0  0  0  0  0
    4.5961    2.7161    2.2476 H   0  0  0  0  0  0  0  0  0  0  0  0
    3.9669    1.2917    3.1098 H   0  0  0  0  0  0  0  0  0  0  0  0
    4.9634    0.6318    0.9138 H   0  0  0  0  0  0  0  0  0  0  0  0
    3.8367    1.7314    0.0795 H   0  0  0  0  0  0  0  0  0  0  0  0
    2.9225   -2.9448   -1.2874 H   0  0  0  0  0  0  0  0  0  0  0  0
    3.7859   -2.7823    0.2520 H   0  0  0  0  0  0  0  0  0  0  0  0
    4.4777   -2.1055   -1.2336 H   0  0  0  0  0  0  0  0  0  0  0  0
   -1.4006   -1.6628    0.4394 H   0  0  0  0  0  0  0  0  0  0  0  0
   -0.5175   -1.1833   -1.0097 H   0  0  0  0  0  0  0  0  0  0  0  0
    0.3250    0.9004    0.2742 H   0  0  0  0  0  0  0  0  0  0  0  0
   -0.6979    0.4313    1.6254 H   0  0  0  0  0  0  0  0  0  0  0  0
   -1.3475    2.1430    0.1068 H   0  0  0  0  0  0  0  0  0  0  0  0
   -3.7826    1.6808   -0.0398 H   0  0  0  0  0  0  0  0  0  0  0  0
   -2.6337    3.1756    1.5519 H   0  0  0  0  0  0  0  0  0  0  0  0
   -2.2345    1.8031    2.6011 H   0  0  0  0  0  0  0  0  0  0  0  0
   -3.9205    2.2715    2.3547 H   0  0  0  0  0  0  0  0  0  0  0  0
   -2.9135   -0.5834    1.8486 H   0  0  0  0  0  0  0  0  0  0  0  0
   -4.5571   -0.0643    1.5009 H   0  0  0  0  0  0  0  0  0  0  0  0
   -3.6123   -0.8352    0.2345 H   0  0  0  0  0  0  0  0  0  0  0  0
   -0.7300    0.9469   -1.9436 H   0  0  0  0  0  0  0  0  0  0  0  0
   -2.6451    0.1614   -3.2810 H   0  0  0  0  0  0  0  0  0  0  0  0
   -2.5588   -0.8221   -1.8257 H   0  0  0  0  0  0  0  0  0  0  0  0
   -3.7737    0.4592   -1.9650 H   0  0  0  0  0  0  0  0  0  0  0  0
   -2.0143    2.6529   -3.2038 H   0  0  0  0  0  0  0  0  0  0  0  0
   -1.3162    3.3323   -1.7310 H   0  0  0  0  0  0  0  0  0  0  0  0
   -3.0459    2.9516   -1.7997 H   0  0  0  0  0  0  0  0  0  0  0  0
  1  2  1  0
  2  3  1  0
  4  3  1  1
  4  5  1  0
  4  6  2  0
  4  7  1  0
  7  8  1  0
  8  9  1  0
  9 10  1  0
 10 11  1  0
 11 12  1  0
 11 13  1  0
 10 14  1  0
 14 15  1  0
 14 16  1  0
  1 17  1  0
  1 18  1  0
  1 19  1  0
  2 20  1  0
  2 21  1  0
  5 22  1  0
  5 23  1  0
  5 24  1  0
  8 25  1  0
  8 26  1  0
  9 27  1  0
  9 28  1  0
 10 29  1  6
 11 30  1  6
 12 31  1  0
 12 32  1  0
 12 33  1  0
 13 34  1  0
 13 35  1  0
 13 36  1  0
 14 37  1  6
 15 38  1  0
 15 39  1  0
 15 40  1  0
 16 41  1  0
 16 42  1  0
 16 43  1  0
M  CHG  1  10   1
M  END
$$$$
