VX
     RDKit          3D

 43 42  0  0  0  0  0  0  0  0999 V2000
    4.1053    1.6855    2.3363 C   0  0  0  0  0  0  0  0  0  0  0  0
    3.8886    1.1673    0.9307 C   0  0  0  0  0  0  0  0  0  0  0  0
    2.9914    0.0687    0.9841 O   0  0  0  0  0  0  0  0  0  0  0  0
    2.6889   -0.7359   -0.3834 P   0  0  2  0  0  0  0  0  0  0  0  0
    3.5468   -2.2699   -0.6795 C   0  0  0  0  0  0  0  0  0  0  0  0
    1.7071   -0.2162   -1.3964 O   0  0  0  0  0  0  0  0  0  0  0  0
    0.9521   -1.9154    0.6946 S   0  0  0  0  0  0  0  0  0  0  0  0
   -0.1095   -0.6258    1.4088 C   0  0  0  0  0  0  0  0  0  0  0  0
   -0.7483    0.3658    0.4236 C   0  0  0  0  0  0  0  0  0  0  0  0
   -2.0184   -0.1268   -0.2972 N   0  0  1  0  0  0  0  0  0  0  0  0
   -1.6737   -1.1026   -1.4474 C   0  0  2  0  0  0  0  0  0  0  0  0
   -2.3063   -0.6102   -2.7495 C   0  0  0  0  0  0  0  0  0  0  0  0
   -2.0290   -2.5564   -1.1476 C   0  0  0  0  0  0  0  0  0  0  0  0
   -3.2204   -0.4669    0.6059 C   0  0  2  0  0  0  0  0  0  0  0  0
   -4.5183   -0.4378   -0.2067 C   0  0  0  0  0  0  0  0  0  0  0  0
   -3.3665    0.5507    1.7441 C   0  0  0  0  0  0  0  0  0  0  0  0
    4.4848    0.8951    2.9917 H   0  0  0  0  0  0  0  0  0  0  0  0
    4.8134    2.5177    2.3397 H   0  0  0  0  0  0  0  0  0  0  0  0
    3.1598    2.0272    2.7671 H   0  0  0  0  0  0  0  0  0  0  0  0
    4.8428    0.8504    0.4986 H   0  0  0  0  0  0  0  0  0  0  0  0
    3.4565    1.9529    0.3012 H   0  0  0  0  0  0  0  0  0  0  0  0
    4.4906   -2.1016   -1.2039 H   0  0  0  0  0  0  0  0  0  0  0  0
    3.7627   -2.7868    0.2608 H   0  0  0  0  0  0  0  0  0  0  0  0
    2.9304   -2.9280   -1.3006 H   0  0  0  0  0  0  0  0  0  0  0  0
    0.5235   -0.0586    2.1002 H   0  0  0  0  0  0  0  0  0  0  0  0
   -0.8712   -1.1218    2.0161 H   0  0  0  0  0  0  0  0  0  0  0  0
   -0.0621    0.7220   -0.3467 H   0  0  0  0  0  0  0  0  0  0  0  0
   -1.0492    1.2705    0.9655 H   0  0  0  0  0  0  0  0  0  0  0  0
   -2.3170    0.7277   -0.7882 H   0  0  0  0  0  0  0  0  0  0  0  0
   -0.5931   -1.0362   -1.5963 H   0  0  0  0  0  0  0  0  0  0  0  0
   -3.3980   -0.6347   -2.7253 H   0  0  0  0  0  0  0  0  0  0  0  0
   -1.9834   -1.2388   -3.5860 H   0  0  0  0  0  0  0  0  0  0  0  0
   -1.9964    0.4159   -2.9716 H   0  0  0  0  0  0  0  0  0  0  0  0
   -3.1033   -2.7490   -1.1988 H   0  0  0  0  0  0  0  0  0  0  0  0
   -1.5621   -3.2097   -1.8950 H   0  0  0  0  0  0  0  0  0  0  0  0
   -1.6762   -2.8814   -0.1667 H   0  0  0  0  0  0  0  0  0  0  0  0
   -3.0456   -1.4595    1.0307 H   0  0  0  0  0  0  0  0  0  0  0  0
   -4.5704   -1.2387   -0.9435 H   0  0  0  0  0  0  0  0  0  0  0  0
   -5.3847   -0.5744    0.4516 H   0  0  0  0  0  0  0  0  0  0  0  0
   -4.6446    0.5168   -0.7283 H   0  0  0  0  0  0  0  0  0  0  0  0
   -4.2718    0.3450    2.3254 H   0  0  0  0  0  0  0  0  0  0  0  0
   -3.4410    1.5763    1.3630 H   0  0  0  0  0  0  0  0  0  0  0  0
   -2.5349    0.5025    2.4524 H   0  0  0  0  0  0  0  0  0  0  0  0
  1  2  1  0
  2  3  1  0
  4  3  1  1
  4  5  1  0
  4  6  2  0
  4  7  1  0
  7  8  1  0
  8  9  1  0
  9 10  1  0
 10 11  1  0
 11 12  1  0
 11 13  1  0
 10 14  1  0
 14 15  1  0
 14 16  1  0
  1 17  1  0
  1 18  1  0
  1 19  1  0
  2 20  1  0
  2 21  1  0
  5 22  1  0
  5 23  1  0
  5 24  1  0
  8 25  1  0
  8 26  1  0
  9 27  1  0
  9 28  1  0
 10 29  1  1
 11 30  1  6
 12 31  1  0
 12 32  1  0
 12 33  1  0
 13 34  1  0
 13 35  1  0
 13 36  1  0
 14 37  1  6
 15 38  1  0
 15 39  1  0
 15 40  1  0
 16 41  1  0
 16 42  1  0
 16 43  1  0
M  CHG  1  10   1
M  END
$$$$
