VX
     RDKit          3D

 43 42  0  0  0  0  0  0  0  0999 V2000
    3.0432    2.4621    1.0108 C   0  0  0  0  0  0  0  0  0  0  0  0
    3.8633    1.1903    0.9328 C   0  0  0  0  0  0  0  0  0  0  0  0
    2.9919    0.0690    0.9853 O   0  0  0  0  0  0  0  0  0  0  0  0
    2.6883   -0.7358   -0.3842 P   0  0  2  0  0  0  0  0  0  0  0  0
    3.5466   -2.2697   -0.6797 C   0  0  0  0  0  0  0  0  0  0  0  0
    1.7074   -0.2169   -1.3966 O   0  0  0  0  0  0  0  0  0  0  0  0
    0.9516   -1.9152    0.6939 S   0  0  0  0  0  0  0  0  0  0  0  0
   -0.2921   -0.6182    0.9193 C   0  0  0  0  0  0  0  0  0  0  0  0
   -1.6631   -1.2313    1.1988 C   0  0  0  0  0  0  0  0  0  0  0  0
   -2.7334   -0.1100    1.3284 N   0  0  1  0  0  0  0  0  0  0  0  0
   -3.7027   -0.1080    0.1240 C   0  0  2  0  0  0  0  0  0  0  0  0
   -2.9106    0.0999   -1.1741 C   0  0  0  0  0  0  0  0  0  0  0  0
   -4.7338    1.0122    0.2245 C   0  0  0  0  0  0  0  0  0  0  0  0
   -3.3171   -0.1304    2.7522 C   0  0  2  0  0  0  0  0  0  0  0  0
   -4.3985   -1.1916    2.9090 C   0  0  0  0  0  0  0  0  0  0  0  0
   -3.7465    1.2596    3.2111 C   0  0  0  0  0  0  0  0  0  0  0  0
    2.3487    2.5256    0.1663 H   0  0  0  0  0  0  0  0  0  0  0  0
    3.6897    3.3441    1.0019 H   0  0  0  0  0  0  0  0  0  0  0  0
    2.4366    2.4774    1.9225 H   0  0  0  0  0  0  0  0  0  0  0  0
    4.4663    1.1772    0.0190 H   0  0  0  0  0  0  0  0  0  0  0  0
    4.5451    1.1266    1.7857 H   0  0  0  0  0  0  0  0  0  0  0  0
    3.7639   -2.7824    0.2611 H   0  0  0  0  0  0  0  0  0  0  0  0
    4.4913   -2.0951   -1.2007 H   0  0  0  0  0  0  0  0  0  0  0  0
    2.9375   -2.9332   -1.2997 H   0  0  0  0  0  0  0  0  0  0  0  0
   -0.3277   -0.0080    0.0143 H   0  0  0  0  0  0  0  0  0  0  0  0
    0.0176    0.0299    1.7447 H   0  0  0  0  0  0  0  0  0  0  0  0
   -1.9920   -1.9207    0.4138 H   0  0  0  0  0  0  0  0  0  0  0  0
   -1.6463   -1.8001    2.1351 H   0  0  0  0  0  0  0  0  0  0  0  0
   -2.2286    0.7839    1.2626 H   0  0  0  0  0  0  0  0  0  0  0  0
   -4.1987   -1.0843    0.1085 H   0  0  0  0  0  0  0  0  0  0  0  0
   -2.3135    1.0171   -1.1331 H   0  0  0  0  0  0  0  0  0  0  0  0
   -3.5890    0.1828   -2.0307 H   0  0  0  0  0  0  0  0  0  0  0  0
   -2.2414   -0.7364   -1.3949 H   0  0  0  0  0  0  0  0  0  0  0  0
   -4.2626    1.9792    0.4284 H   0  0  0  0  0  0  0  0  0  0  0  0
   -5.4827    0.8072    0.9911 H   0  0  0  0  0  0  0  0  0  0  0  0
   -5.2930    1.1099   -0.7131 H   0  0  0  0  0  0  0  0  0  0  0  0
   -2.4750   -0.3946    3.4044 H   0  0  0  0  0  0  0  0  0  0  0  0
   -4.0469   -2.1733    2.5771 H   0  0  0  0  0  0  0  0  0  0  0  0
   -5.3064   -0.9509    2.3494 H   0  0  0  0  0  0  0  0  0  0  0  0
   -4.6840   -1.2836    3.9626 H   0  0  0  0  0  0  0  0  0  0  0  0
   -4.7110    1.5707    2.8072 H   0  0  0  0  0  0  0  0  0  0  0  0
   -2.9988    2.0164    2.9533 H   0  0  0  0  0  0  0  0  0  0  0  0
   -3.8552    1.2684    4.3023 H   0  0  0  0  0  0  0  0  0  0  0  0
  1  2  1  0
  2  3  1  0
  4  3  1  1
  4  5  1  0
  4  6  2  0
  4  7  1  0
  7  8  1  0
  8  9  1  0
  9 10  1  0
 10 11  1  0
 11 12  1  0
 11 13  1  0
 10 14  1  0
 14 15  1  0
 14 16  1  0
  1 17  1  0
  1 18  1  0
  1 19  1  0
  2 20  1  0
  2 21  1  0
  5 22  1  0
  5 23  1  0
  5 24  1  0
  8 25  1  0
  8 26  1  0
  9 27  1  0
  9 28  1  0
 10 29  1  6
 11 30  1  6
 12 31  1  0
 12 32  1  0
 12 33  1  0
 13 34  1  0
 13 35  1  0
 13 36  1  0
 14 37  1  6
 15 38  1  0
 15 39  1  0
 15 40  1  0
 16 41  1  0
 16 42  1  0
 16 43  1  0
M  CHG  1  10   1
M  END
$$$$
