VX
     RDKit          3D

 43 42  0  0  0  0  0  0  0  0999 V2000
    3.8437    1.9008    2.2464 C   0  0  0  0  0  0  0  0  0  0  0  0
    3.9395    1.1246    0.9489 C   0  0  0  0  0  0  0  0  0  0  0  0
    2.9904    0.0687    0.9825 O   0  0  0  0  0  0  0  0  0  0  0  0
    2.6899   -0.7368   -0.3827 P   0  0  2  0  0  0  0  0  0  0  0  0
    3.5463   -2.2692   -0.6797 C   0  0  0  0  0  0  0  0  0  0  0  0
    1.7077   -0.2160   -1.3952 O   0  0  0  0  0  0  0  0  0  0  0  0
    0.9532   -1.9163    0.6953 S   0  0  0  0  0  0  0  0  0  0  0  0
   -0.1529   -0.5604    1.2031 C   0  0  0  0  0  0  0  0  0  0  0  0
   -1.5966   -0.7940    0.7441 C   0  0  0  0  0  0  0  0  0  0  0  0
   -1.6846   -1.2075   -0.7449 N   0  0  2  0  0  0  0  0  0  0  0  0
   -1.5487    0.0415   -1.6413 C   0  0  2  0  0  0  0  0  0  0  0  0
   -2.8619    0.8108   -1.7586 C   0  0  0  0  0  0  0  0  0  0  0  0
   -0.9293   -0.2913   -2.9967 C   0  0  0  0  0  0  0  0  0  0  0  0
   -2.8418   -2.1923   -1.0110 C   0  0  2  0  0  0  0  0  0  0  0  0
   -2.6115   -3.4966   -0.2294 C   0  0  0  0  0  0  0  0  0  0  0  0
   -2.9571   -2.5726   -2.4867 C   0  0  0  0  0  0  0  0  0  0  0  0
    4.0082    1.2412    3.1045 H   0  0  0  0  0  0  0  0  0  0  0  0
    4.5808    2.7086    2.2742 H   0  0  0  0  0  0  0  0  0  0  0  0
    2.8431    2.3317    2.3639 H   0  0  0  0  0  0  0  0  0  0  0  0
    4.9426    0.7012    0.8383 H   0  0  0  0  0  0  0  0  0  0  0  0
    3.7348    1.7837    0.0992 H   0  0  0  0  0  0  0  0  0  0  0  0
    4.4801   -2.0955   -1.2230 H   0  0  0  0  0  0  0  0  0  0  0  0
    3.7844   -2.7715    0.2628 H   0  0  0  0  0  0  0  0  0  0  0  0
    2.9281   -2.9413   -1.2815 H   0  0  0  0  0  0  0  0  0  0  0  0
   -0.1240   -0.4780    2.2948 H   0  0  0  0  0  0  0  0  0  0  0  0
    0.2229    0.3864    0.8036 H   0  0  0  0  0  0  0  0  0  0  0  0
   -2.2095    0.1013    0.8857 H   0  0  0  0  0  0  0  0  0  0  0  0
   -2.0388   -1.5797    1.3569 H   0  0  0  0  0  0  0  0  0  0  0  0
   -0.8206   -1.7499   -0.9043 H   0  0  0  0  0  0  0  0  0  0  0  0
   -0.8279    0.6875   -1.1292 H   0  0  0  0  0  0  0  0  0  0  0  0
   -3.6352    0.2500   -2.2897 H   0  0  0  0  0  0  0  0  0  0  0  0
   -3.2620    1.0847   -0.7770 H   0  0  0  0  0  0  0  0  0  0  0  0
   -2.7010    1.7418   -2.3137 H   0  0  0  0  0  0  0  0  0  0  0  0
   -1.6669   -0.6090   -3.7376 H   0  0  0  0  0  0  0  0  0  0  0  0
   -0.1575   -1.0630   -2.9196 H   0  0  0  0  0  0  0  0  0  0  0  0
   -0.4573    0.6069   -3.4124 H   0  0  0  0  0  0  0  0  0  0  0  0
   -3.7603   -1.7024   -0.6714 H   0  0  0  0  0  0  0  0  0  0  0  0
   -1.6182   -3.9127   -0.4287 H   0  0  0  0  0  0  0  0  0  0  0  0
   -3.3517   -4.2523   -0.5157 H   0  0  0  0  0  0  0  0  0  0  0  0
   -2.7215   -3.3723    0.8509 H   0  0  0  0  0  0  0  0  0  0  0  0
   -3.6723   -3.3940   -2.6181 H   0  0  0  0  0  0  0  0  0  0  0  0
   -3.3431   -1.7530   -3.0951 H   0  0  0  0  0  0  0  0  0  0  0  0
   -1.9980   -2.9086   -2.8954 H   0  0  0  0  0  0  0  0  0  0  0  0
  1  2  1  0
  2  3  1  0
  4  3  1  1
  4  5  1  0
  4  6  2  0
  4  7  1  0
  7  8  1  0
  8  9  1  0
  9 10  1  0
 10 11  1  0
 11 12  1  0
 11 13  1  0
 10 14  1  0
 14 15  1  0
 14 16  1  0
  1 17  1  0
  1 18  1  0
  1 19  1  0
  2 20  1  0
  2 21  1  0
  5 22  1  0
  5 23  1  0
  5 24  1  0
  8 25  1  0
  8 26  1  0
  9 27  1  0
  9 28  1  0
 10 29  1  6
 11 30  1  1
 12 31  1  0
 12 32  1  0
 12 33  1  0
 13 34  1  0
 13 35  1  0
 13 36  1  0
 14 37  1  6
 15 38  1  0
 15 39  1  0
 15 40  1  0
 16 41  1  0
 16 42  1  0
 16 43  1  0
M  CHG  1  10   1
M  END
$$$$
