VX
     RDKit          3D

 43 42  0  0  0  0  0  0  0  0999 V2000
    3.9757    1.7918    2.3055 C   0  0  0  0  0  0  0  0  0  0  0  0
    3.8647    1.1869    0.9211 C   0  0  0  0  0  0  0  0  0  0  0  0
    2.9922    0.0682    0.9850 O   0  0  0  0  0  0  0  0  0  0  0  0
    2.6882   -0.7355   -0.3841 P   0  0  2  0  0  0  0  0  0  0  0  0
    3.5466   -2.2692   -0.6791 C   0  0  0  0  0  0  0  0  0  0  0  0
    1.7072   -0.2169   -1.3969 O   0  0  0  0  0  0  0  0  0  0  0  0
    0.9514   -1.9149    0.6940 S   0  0  0  0  0  0  0  0  0  0  0  0
   -0.3839   -0.6886    0.6720 C   0  0  0  0  0  0  0  0  0  0  0  0
   -1.6360   -1.2418    1.3513 C   0  0  0  0  0  0  0  0  0  0  0  0
   -2.8694   -0.3288    1.1545 N   0  0  2  0  0  0  0  0  0  0  0  0
   -2.6425    1.1277    1.5906 C   0  0  2  0  0  0  0  0  0  0  0  0
   -2.2057    1.2793    3.0446 C   0  0  0  0  0  0  0  0  0  0  0  0
   -3.8248    2.0261    1.2532 C   0  0  0  0  0  0  0  0  0  0  0  0
   -4.1485   -1.0918    1.5508 C   0  0  1  0  0  0  0  0  0  0  0  0
   -4.4776   -1.0022    3.0309 C   0  0  0  0  0  0  0  0  0  0  0  0
   -5.3256   -0.7104    0.6557 C   0  0  0  0  0  0  0  0  0  0  0  0
    4.6335    2.6647    2.2978 H   0  0  0  0  0  0  0  0  0  0  0  0
    2.9901    2.0951    2.6742 H   0  0  0  0  0  0  0  0  0  0  0  0
    4.3695    1.0578    3.0160 H   0  0  0  0  0  0  0  0  0  0  0  0
    4.8502    0.8660    0.5719 H   0  0  0  0  0  0  0  0  0  0  0  0
    3.4603    1.9244    0.2208 H   0  0  0  0  0  0  0  0  0  0  0  0
    3.7687   -2.7780    0.2635 H   0  0  0  0  0  0  0  0  0  0  0  0
    2.9322   -2.9349   -1.2924 H   0  0  0  0  0  0  0  0  0  0  0  0
    4.4876   -2.0983   -1.2082 H   0  0  0  0  0  0  0  0  0  0  0  0
   -0.0179    0.2071    1.1816 H   0  0  0  0  0  0  0  0  0  0  0  0
   -0.6015   -0.4292   -0.3692 H   0  0  0  0  0  0  0  0  0  0  0  0
   -1.5024   -1.3883    2.4278 H   0  0  0  0  0  0  0  0  0  0  0  0
   -1.8998   -2.2025    0.8937 H   0  0  0  0  0  0  0  0  0  0  0  0
   -2.9430   -0.2600    0.1299 H   0  0  0  0  0  0  0  0  0  0  0  0
   -1.8185    1.4759    0.9573 H   0  0  0  0  0  0  0  0  0  0  0  0
   -3.0054    1.0658    3.7552 H   0  0  0  0  0  0  0  0  0  0  0  0
   -1.3466    0.6509    3.2916 H   0  0  0  0  0  0  0  0  0  0  0  0
   -1.8976    2.3154    3.2283 H   0  0  0  0  0  0  0  0  0  0  0  0
   -3.5376    3.0784    1.3644 H   0  0  0  0  0  0  0  0  0  0  0  0
   -4.1479    1.8899    0.2163 H   0  0  0  0  0  0  0  0  0  0  0  0
   -4.6733    1.8625    1.9220 H   0  0  0  0  0  0  0  0  0  0  0  0
   -3.9387   -2.1442    1.3239 H   0  0  0  0  0  0  0  0  0  0  0  0
   -5.2670   -1.7209    3.2799 H   0  0  0  0  0  0  0  0  0  0  0  0
   -4.8559   -0.0157    3.3110 H   0  0  0  0  0  0  0  0  0  0  0  0
   -3.6124   -1.2473    3.6544 H   0  0  0  0  0  0  0  0  0  0  0  0
   -5.0395   -0.6933   -0.4008 H   0  0  0  0  0  0  0  0  0  0  0  0
   -6.1263   -1.4513    0.7640 H   0  0  0  0  0  0  0  0  0  0  0  0
   -5.7627    0.2552    0.9148 H   0  0  0  0  0  0  0  0  0  0  0  0
  1  2  1  0
  2  3  1  0
  4  3  1  1
  4  5  1  0
  4  6  2  0
  4  7  1  0
  7  8  1  0
  8  9  1  0
  9 10  1  0
 10 11  1  0
 11 12  1  0
 11 13  1  0
 10 14  1  0
 14 15  1  0
 14 16  1  0
  1 17  1  0
  1 18  1  0
  1 19  1  0
  2 20  1  0
  2 21  1  0
  5 22  1  0
  5 23  1  0
  5 24  1  0
  8 25  1  0
  8 26  1  0
  9 27  1  0
  9 28  1  0
 10 29  1  6
 11 30  1  6
 12 31  1  0
 12 32  1  0
 12 33  1  0
 13 34  1  0
 13 35  1  0
 13 36  1  0
 14 37  1  6
 15 38  1  0
 15 39  1  0
 15 40  1  0
 16 41  1  0
 16 42  1  0
 16 43  1  0
M  CHG  1  10   1
M  END
$$$$
