VX
     RDKit          3D

 43 42  0  0  0  0  0  0  0  0999 V2000
    3.8916    1.8675    2.2670 C   0  0  0  0  0  0  0  0  0  0  0  0
    3.8857    1.1696    0.9237 C   0  0  0  0  0  0  0  0  0  0  0  0
    2.9909    0.0702    0.9850 O   0  0  0  0  0  0  0  0  0  0  0  0
    2.6891   -0.7364   -0.3837 P   0  0  2  0  0  0  0  0  0  0  0  0
    3.5469   -2.2709   -0.6805 C   0  0  0  0  0  0  0  0  0  0  0  0
    1.7075   -0.2163   -1.3959 O   0  0  0  0  0  0  0  0  0  0  0  0
    0.9523   -1.9159    0.6944 S   0  0  0  0  0  0  0  0  0  0  0  0
   -0.3841   -0.6953    0.6675 C   0  0  0  0  0  0  0  0  0  0  0  0
   -1.6140   -1.2262    1.3987 C   0  0  0  0  0  0  0  0  0  0  0  0
   -2.7516   -0.1660    1.3527 N   0  0  1  0  0  0  0  0  0  0  0  0
   -3.9871   -0.6957    0.5973 C   0  0  1  0  0  0  0  0  0  0  0  0
   -5.1205    0.3271    0.5526 C   0  0  0  0  0  0  0  0  0  0  0  0
   -3.5907   -1.0121   -0.8555 C   0  0  0  0  0  0  0  0  0  0  0  0
   -2.9260    0.4410    2.7568 C   0  0  1  0  0  0  0  0  0  0  0  0
   -3.3801    1.8960    2.6923 C   0  0  0  0  0  0  0  0  0  0  0  0
   -3.7885   -0.4364    3.6564 C   0  0  0  0  0  0  0  0  0  0  0  0
    2.8961    2.2580    2.5008 H   0  0  0  0  0  0  0  0  0  0  0  0
    4.1524    1.1655    3.0676 H   0  0  0  0  0  0  0  0  0  0  0  0
    4.6042    2.6969    2.2751 H   0  0  0  0  0  0  0  0  0  0  0  0
    4.8882    0.8074    0.6846 H   0  0  0  0  0  0  0  0  0  0  0  0
    3.5611    1.8645    0.1455 H   0  0  0  0  0  0  0  0  0  0  0  0
    4.4736   -2.1039   -1.2369 H   0  0  0  0  0  0  0  0  0  0  0  0
    3.7956   -2.7593    0.2650 H   0  0  0  0  0  0  0  0  0  0  0  0
    2.9186   -2.9511   -1.2655 H   0  0  0  0  0  0  0  0  0  0  0  0
   -0.0280    0.2240    1.1424 H   0  0  0  0  0  0  0  0  0  0  0  0
   -0.6280   -0.4640   -0.3733 H   0  0  0  0  0  0  0  0  0  0  0  0
   -1.9912   -2.1578    0.9672 H   0  0  0  0  0  0  0  0  0  0  0  0
   -1.3855   -1.4382    2.4512 H   0  0  0  0  0  0  0  0  0  0  0  0
   -2.4054    0.6081    0.7700 H   0  0  0  0  0  0  0  0  0  0  0  0
   -4.3126   -1.6056    1.1104 H   0  0  0  0  0  0  0  0  0  0  0  0
   -5.9188   -0.0147   -0.1195 H   0  0  0  0  0  0  0  0  0  0  0  0
   -4.7748    1.2977    0.1840 H   0  0  0  0  0  0  0  0  0  0  0  0
   -5.5913    0.4605    1.5254 H   0  0  0  0  0  0  0  0  0  0  0  0
   -2.8438   -1.8052   -0.9302 H   0  0  0  0  0  0  0  0  0  0  0  0
   -4.4626   -1.3524   -1.4231 H   0  0  0  0  0  0  0  0  0  0  0  0
   -3.1906   -0.1237   -1.3563 H   0  0  0  0  0  0  0  0  0  0  0  0
   -1.9119    0.4768    3.1801 H   0  0  0  0  0  0  0  0  0  0  0  0
   -4.4425    2.0084    2.4679 H   0  0  0  0  0  0  0  0  0  0  0  0
   -3.2191    2.3771    3.6636 H   0  0  0  0  0  0  0  0  0  0  0  0
   -2.8046    2.4598    1.9495 H   0  0  0  0  0  0  0  0  0  0  0  0
   -3.7233   -0.0854    4.6919 H   0  0  0  0  0  0  0  0  0  0  0  0
   -3.4577   -1.4781    3.6428 H   0  0  0  0  0  0  0  0  0  0  0  0
   -4.8456   -0.4120    3.3770 H   0  0  0  0  0  0  0  0  0  0  0  0
  1  2  1  0
  2  3  1  0
  4  3  1  1
  4  5  1  0
  4  6  2  0
  4  7  1  0
  7  8  1  0
  8  9  1  0
  9 10  1  0
 10 11  1  0
 11 12  1  0
 11 13  1  0
 10 14  1  0
 14 15  1  0
 14 16  1  0
  1 17  1  0
  1 18  1  0
  1 19  1  0
  2 20  1  0
  2 21  1  0
  5 22  1  0
  5 23  1  0
  5 24  1  0
  8 25  1  0
  8 26  1  0
  9 27  1  0
  9 28  1  0
 10 29  1  1
 11 30  1  6
 12 31  1  0
 12 32  1  0
 12 33  1  0
 13 34  1  0
 13 35  1  0
 13 36  1  0
 14 37  1  1
 15 38  1  0
 15 39  1  0
 15 40  1  0
 16 41  1  0
 16 42  1  0
 16 43  1  0
M  CHG  1  10   1
M  END
$$$$
