VX
     RDKit          3D

 43 42  0  0  0  0  0  0  0  0999 V2000
    5.6187    1.2475   -0.8336 C   0  0  0  0  0  0  0  0  0  0  0  0
    4.7017    0.2572   -0.1464 C   0  0  0  0  0  0  0  0  0  0  0  0
    3.7579    0.9789    0.6315 O   0  0  0  0  0  0  0  0  0  0  0  0
    2.6892    0.1329    1.4994 P   0  0  2  0  0  0  0  0  0  0  0  0
    2.9604   -0.0068    3.2558 C   0  0  0  0  0  0  0  0  0  0  0  0
    1.4954   -0.5254    0.8692 O   0  0  0  0  0  0  0  0  0  0  0  0
    1.4228    2.0930    1.8508 S   0  0  0  0  0  0  0  0  0  0  0  0
    0.9525    2.5392    0.1501 C   0  0  0  0  0  0  0  0  0  0  0  0
   -0.1681    3.5802    0.0822 C   0  0  0  0  0  0  0  0  0  0  0  0
   -1.6092    3.0536    0.0660 N   0  0  2  0  0  0  0  0  0  0  0  0
   -2.0183    2.1725    1.2551 C   0  0  2  0  0  0  0  0  0  0  0  0
   -1.8871    0.6824    0.9694 C   0  0  0  0  0  0  0  0  0  0  0  0
   -3.4520    2.5234    1.6675 C   0  0  0  0  0  0  0  0  0  0  0  0
   -2.2124    2.6911   -1.3001 C   0  0  2  0  0  0  0  0  0  0  0  0
   -1.2927    1.8341   -2.1592 C   0  0  0  0  0  0  0  0  0  0  0  0
   -2.6033    3.9785   -2.0308 C   0  0  0  0  0  0  0  0  0  0  0  0
    5.0438    1.9274   -1.4712 H   0  0  0  0  0  0  0  0  0  0  0  0
    6.3613    0.7308   -1.4478 H   0  0  0  0  0  0  0  0  0  0  0  0
    6.1392    1.8670   -0.0958 H   0  0  0  0  0  0  0  0  0  0  0  0
    5.2826   -0.4068    0.4998 H   0  0  0  0  0  0  0  0  0  0  0  0
    4.1723   -0.3441   -0.8920 H   0  0  0  0  0  0  0  0  0  0  0  0
    2.0064   -0.0997    3.7826 H   0  0  0  0  0  0  0  0  0  0  0  0
    3.4796    0.8762    3.6392 H   0  0  0  0  0  0  0  0  0  0  0  0
    3.5625   -0.8883    3.4911 H   0  0  0  0  0  0  0  0  0  0  0  0
    1.8520    2.9652   -0.3074 H   0  0  0  0  0  0  0  0  0  0  0  0
    0.7133    1.6345   -0.4079 H   0  0  0  0  0  0  0  0  0  0  0  0
   -0.1128    4.2871    0.9191 H   0  0  0  0  0  0  0  0  0  0  0  0
   -0.0564    4.1724   -0.8316 H   0  0  0  0  0  0  0  0  0  0  0  0
   -2.1098    3.9220    0.2927 H   0  0  0  0  0  0  0  0  0  0  0  0
   -1.3721    2.4600    2.0886 H   0  0  0  0  0  0  0  0  0  0  0  0
   -2.0810    0.1097    1.8836 H   0  0  0  0  0  0  0  0  0  0  0  0
   -0.8891    0.4087    0.6269 H   0  0  0  0  0  0  0  0  0  0  0  0
   -2.6092    0.3396    0.2217 H   0  0  0  0  0  0  0  0  0  0  0  0
   -3.5450    3.5889    1.9043 H   0  0  0  0  0  0  0  0  0  0  0  0
   -3.7369    1.9626    2.5645 H   0  0  0  0  0  0  0  0  0  0  0  0
   -4.1784    2.2850    0.8846 H   0  0  0  0  0  0  0  0  0  0  0  0
   -3.1355    2.1380   -1.1012 H   0  0  0  0  0  0  0  0  0  0  0  0
   -1.7995    1.5645   -3.0932 H   0  0  0  0  0  0  0  0  0  0  0  0
   -1.0233    0.8975   -1.6663 H   0  0  0  0  0  0  0  0  0  0  0  0
   -0.3757    2.3624   -2.4376 H   0  0  0  0  0  0  0  0  0  0  0  0
   -3.2907    4.5817   -1.4279 H   0  0  0  0  0  0  0  0  0  0  0  0
   -3.1140    3.7421   -2.9708 H   0  0  0  0  0  0  0  0  0  0  0  0
   -1.7326    4.5948   -2.2748 H   0  0  0  0  0  0  0  0  0  0  0  0
  1  2  1  0
  2  3  1  0
  4  3  1  6
  4  5  1  0
  4  6  2  0
  4  7  1  0
  7  8  1  0
  8  9  1  0
  9 10  1  0
 10 11  1  0
 11 12  1  0
 11 13  1  0
 10 14  1  0
 14 15  1  0
 14 16  1  0
  1 17  1  0
  1 18  1  0
  1 19  1  0
  2 20  1  0
  2 21  1  0
  5 22  1  0
  5 23  1  0
  5 24  1  0
  8 25  1  0
  8 26  1  0
  9 27  1  0
  9 28  1  0
 10 29  1  1
 11 30  1  6
 12 31  1  0
 12 32  1  0
 12 33  1  0
 13 34  1  0
 13 35  1  0
 13 36  1  0
 14 37  1  6
 15 38  1  0
 15 39  1  0
 15 40  1  0
 16 41  1  0
 16 42  1  0
 16 43  1  0
M  CHG  1  10   1
M  END
$$$$
