VX
     RDKit          3D

 43 42  0  0  0  0  0  0  0  0999 V2000
    3.9142    1.8370    2.2871 C   0  0  0  0  0  0  0  0  0  0  0  0
    3.8794    1.1737    0.9258 C   0  0  0  0  0  0  0  0  0  0  0  0
    2.9951    0.0642    0.9852 O   0  0  0  0  0  0  0  0  0  0  0  0
    2.6861   -0.7333   -0.3850 P   0  0  2  0  0  0  0  0  0  0  0  0
    3.5465   -2.2665   -0.6762 C   0  0  0  0  0  0  0  0  0  0  0  0
    1.7065   -0.2178   -1.3992 O   0  0  0  0  0  0  0  0  0  0  0  0
    0.9494   -1.9127    0.6931 S   0  0  0  0  0  0  0  0  0  0  0  0
   -0.1194   -0.5489    1.2637 C   0  0  0  0  0  0  0  0  0  0  0  0
   -1.5107   -1.0699    1.6238 C   0  0  0  0  0  0  0  0  0  0  0  0
   -2.1386   -1.8782    0.4771 N   0  0  1  0  0  0  0  0  0  0  0  0
   -3.0247   -3.0136    1.0070 C   0  0  2  0  0  0  0  0  0  0  0  0
   -3.1736   -4.1075   -0.0490 C   0  0  0  0  0  0  0  0  0  0  0  0
   -4.3649   -2.4902    1.5072 C   0  0  0  0  0  0  0  0  0  0  0  0
   -2.7207   -1.0952   -0.7138 C   0  0  2  0  0  0  0  0  0  0  0  0
   -1.6875   -1.0061   -1.8336 C   0  0  0  0  0  0  0  0  0  0  0  0
   -3.2567    0.2788   -0.3278 C   0  0  0  0  0  0  0  0  0  0  0  0
    4.5901    2.6963    2.2848 H   0  0  0  0  0  0  0  0  0  0  0  0
    4.2450    1.1282    3.0535 H   0  0  0  0  0  0  0  0  0  0  0  0
    2.9134    2.1753    2.5764 H   0  0  0  0  0  0  0  0  0  0  0  0
    4.8799    0.8271    0.6518 H   0  0  0  0  0  0  0  0  0  0  0  0
    3.5289    1.8849    0.1714 H   0  0  0  0  0  0  0  0  0  0  0  0
    3.7829   -2.7651    0.2680 H   0  0  0  0  0  0  0  0  0  0  0  0
    2.9291   -2.9423   -1.2750 H   0  0  0  0  0  0  0  0  0  0  0  0
    4.4802   -2.0952   -1.2185 H   0  0  0  0  0  0  0  0  0  0  0  0
   -0.1815    0.2142    0.4844 H   0  0  0  0  0  0  0  0  0  0  0  0
    0.3446   -0.0849    2.1398 H   0  0  0  0  0  0  0  0  0  0  0  0
   -2.1965   -0.2700    1.9120 H   0  0  0  0  0  0  0  0  0  0  0  0
   -1.4205   -1.7427    2.4847 H   0  0  0  0  0  0  0  0  0  0  0  0
   -1.3185   -2.3810    0.0984 H   0  0  0  0  0  0  0  0  0  0  0  0
   -2.4760   -3.4559    1.8470 H   0  0  0  0  0  0  0  0  0  0  0  0
   -3.7859   -3.7938   -0.8990 H   0  0  0  0  0  0  0  0  0  0  0  0
   -3.6590   -4.9869    0.3891 H   0  0  0  0  0  0  0  0  0  0  0  0
   -2.1969   -4.4251   -0.4291 H   0  0  0  0  0  0  0  0  0  0  0  0
   -4.9814   -2.0898    0.6970 H   0  0  0  0  0  0  0  0  0  0  0  0
   -4.9337   -3.3006    1.9765 H   0  0  0  0  0  0  0  0  0  0  0  0
   -4.2331   -1.7060    2.2592 H   0  0  0  0  0  0  0  0  0  0  0  0
   -3.5580   -1.6824   -1.0994 H   0  0  0  0  0  0  0  0  0  0  0  0
   -1.2884   -1.9937   -2.0879 H   0  0  0  0  0  0  0  0  0  0  0  0
   -2.1482   -0.5961   -2.7395 H   0  0  0  0  0  0  0  0  0  0  0  0
   -0.8535   -0.3517   -1.5726 H   0  0  0  0  0  0  0  0  0  0  0  0
   -3.7675    0.7339   -1.1840 H   0  0  0  0  0  0  0  0  0  0  0  0
   -2.4585    0.9664   -0.0320 H   0  0  0  0  0  0  0  0  0  0  0  0
   -3.9852    0.2165    0.4856 H   0  0  0  0  0  0  0  0  0  0  0  0
  1  2  1  0
  2  3  1  0
  4  3  1  1
  4  5  1  0
  4  6  2  0
  4  7  1  0
  7  8  1  0
  8  9  1  0
  9 10  1  0
 10 11  1  0
 11 12  1  0
 11 13  1  0
 10 14  1  0
 14 15  1  0
 14 16  1  0
  1 17  1  0
  1 18  1  0
  1 19  1  0
  2 20  1  0
  2 21  1  0
  5 22  1  0
  5 23  1  0
  5 24  1  0
  8 25  1  0
  8 26  1  0
  9 27  1  0
  9 28  1  0
 10 29  1  1
 11 30  1  1
 12 31  1  0
 12 32  1  0
 12 33  1  0
 13 34  1  0
 13 35  1  0
 13 36  1  0
 14 37  1  1
 15 38  1  0
 15 39  1  0
 15 40  1  0
 16 41  1  0
 16 42  1  0
 16 43  1  0
M  CHG  1  10   1
M  END
$$$$
