VX
     RDKit          3D

 43 42  0  0  0  0  0  0  0  0999 V2000
    3.8194    1.9455    2.2067 C   0  0  0  0  0  0  0  0  0  0  0  0
    3.9521    1.1180    0.9450 C   0  0  0  0  0  0  0  0  0  0  0  0
    2.9786    0.0841    0.9804 O   0  0  0  0  0  0  0  0  0  0  0  0
    2.6971   -0.7452   -0.3803 P   0  0  2  0  0  0  0  0  0  0  0  0
    3.5452   -2.2782   -0.6912 C   0  0  0  0  0  0  0  0  0  0  0  0
    1.7134   -0.2140   -1.3840 O   0  0  0  0  0  0  0  0  0  0  0  0
    0.9604   -1.9247    0.6977 S   0  0  0  0  0  0  0  0  0  0  0  0
   -0.4933   -0.8715    0.4192 C   0  0  0  0  0  0  0  0  0  0  0  0
   -0.2698    0.5498    0.9475 C   0  0  0  0  0  0  0  0  0  0  0  0
   -1.5605    1.3870    0.9418 N   0  0  1  0  0  0  0  0  0  0  0  0
   -1.4801    2.5221    1.9814 C   0  0  1  0  0  0  0  0  0  0  0  0
   -0.5917    3.6666    1.5110 C   0  0  0  0  0  0  0  0  0  0  0  0
   -2.8852    2.9880    2.3618 C   0  0  0  0  0  0  0  0  0  0  0  0
   -2.1191    1.8093   -0.4312 C   0  0  2  0  0  0  0  0  0  0  0  0
   -3.1829    0.8067   -0.8750 C   0  0  0  0  0  0  0  0  0  0  0  0
   -1.0445    2.0151   -1.4926 C   0  0  0  0  0  0  0  0  0  0  0  0
    4.5529    2.7567    2.2202 H   0  0  0  0  0  0  0  0  0  0  0  0
    2.8147    2.3747    2.2824 H   0  0  0  0  0  0  0  0  0  0  0  0
    3.9663    1.3209    3.0943 H   0  0  0  0  0  0  0  0  0  0  0  0
    4.9492    0.6720    0.8912 H   0  0  0  0  0  0  0  0  0  0  0  0
    3.7947    1.7491    0.0652 H   0  0  0  0  0  0  0  0  0  0  0  0
    2.9214   -2.9434   -1.2956 H   0  0  0  0  0  0  0  0  0  0  0  0
    4.4783   -2.1073   -1.2347 H   0  0  0  0  0  0  0  0  0  0  0  0
    3.7822   -2.7884    0.2465 H   0  0  0  0  0  0  0  0  0  0  0  0
   -1.3447   -1.3376    0.9254 H   0  0  0  0  0  0  0  0  0  0  0  0
   -0.6992   -0.8724   -0.6524 H   0  0  0  0  0  0  0  0  0  0  0  0
    0.0474    0.4892    1.9950 H   0  0  0  0  0  0  0  0  0  0  0  0
    0.4887    1.1089    0.3967 H   0  0  0  0  0  0  0  0  0  0  0  0
   -2.2675    0.7583    1.3448 H   0  0  0  0  0  0  0  0  0  0  0  0
   -1.0399    2.0726    2.8794 H   0  0  0  0  0  0  0  0  0  0  0  0
    0.4115    3.3178    1.2478 H   0  0  0  0  0  0  0  0  0  0  0  0
   -1.0136    4.1901    0.6478 H   0  0  0  0  0  0  0  0  0  0  0  0
   -0.4783    4.4062    2.3116 H   0  0  0  0  0  0  0  0  0  0  0  0
   -3.5253    2.1413    2.6298 H   0  0  0  0  0  0  0  0  0  0  0  0
   -2.8360    3.6524    3.2317 H   0  0  0  0  0  0  0  0  0  0  0  0
   -3.3748    3.5474    1.5601 H   0  0  0  0  0  0  0  0  0  0  0  0
   -2.6279    2.7655   -0.2840 H   0  0  0  0  0  0  0  0  0  0  0  0
   -3.6620    1.1469   -1.7997 H   0  0  0  0  0  0  0  0  0  0  0  0
   -3.9678    0.7061   -0.1177 H   0  0  0  0  0  0  0  0  0  0  0  0
   -2.7687   -0.1856   -1.0681 H   0  0  0  0  0  0  0  0  0  0  0  0
   -1.4905    2.4556   -2.3918 H   0  0  0  0  0  0  0  0  0  0  0  0
   -0.5796    1.0757   -1.8020 H   0  0  0  0  0  0  0  0  0  0  0  0
   -0.2598    2.6978   -1.1556 H   0  0  0  0  0  0  0  0  0  0  0  0
  1  2  1  0
  2  3  1  0
  4  3  1  1
  4  5  1  0
  4  6  2  0
  4  7  1  0
  7  8  1  0
  8  9  1  0
  9 10  1  0
 10 11  1  0
 11 12  1  0
 11 13  1  0
 10 14  1  0
 14 15  1  0
 14 16  1  0
  1 17  1  0
  1 18  1  0
  1 19  1  0
  2 20  1  0
  2 21  1  0
  5 22  1  0
  5 23  1  0
  5 24  1  0
  8 25  1  0
  8 26  1  0
  9 27  1  0
  9 28  1  0
 10 29  1  6
 11 30  1  6
 12 31  1  0
 12 32  1  0
 12 33  1  0
 13 34  1  0
 13 35  1  0
 13 36  1  0
 14 37  1  6
 15 38  1  0
 15 39  1  0
 15 40  1  0
 16 41  1  0
 16 42  1  0
 16 43  1  0
M  CHG  1  10   1
M  END
$$$$
