VX
     RDKit          3D

 43 42  0  0  0  0  0  0  0  0999 V2000
    3.8838    1.8617    2.2758 C   0  0  0  0  0  0  0  0  0  0  0  0
    3.9224    1.1398    0.9448 C   0  0  0  0  0  0  0  0  0  0  0  0
    2.9885    0.0716    0.9828 O   0  0  0  0  0  0  0  0  0  0  0  0
    2.6913   -0.7383   -0.3821 P   0  0  2  0  0  0  0  0  0  0  0  0
    3.5467   -2.2717   -0.6817 C   0  0  0  0  0  0  0  0  0  0  0  0
    1.7077   -0.2150   -1.3942 O   0  0  0  0  0  0  0  0  0  0  0  0
    0.9546   -1.9177    0.6960 S   0  0  0  0  0  0  0  0  0  0  0  0
   -0.3973   -0.7054    0.6639 C   0  0  0  0  0  0  0  0  0  0  0  0
   -1.1423   -0.7710   -0.6721 C   0  0  0  0  0  0  0  0  0  0  0  0
   -2.1801    0.3528   -0.8498 N   0  0  2  0  0  0  0  0  0  0  0  0
   -1.4653    1.7009   -1.1149 C   0  0  1  0  0  0  0  0  0  0  0  0
   -2.0490    2.3578   -2.3643 C   0  0  0  0  0  0  0  0  0  0  0  0
   -1.4572    2.6356    0.0905 C   0  0  0  0  0  0  0  0  0  0  0  0
   -3.3613    0.3311    0.1362 C   0  0  2  0  0  0  0  0  0  0  0  0
   -3.8913   -1.0957    0.3235 C   0  0  0  0  0  0  0  0  0  0  0  0
   -4.5125    1.1866   -0.3982 C   0  0  0  0  0  0  0  0  0  0  0  0
    4.1286    1.1760    3.0938 H   0  0  0  0  0  0  0  0  0  0  0  0
    2.8791    2.2491    2.4750 H   0  0  0  0  0  0  0  0  0  0  0  0
    4.5925    2.6945    2.2890 H   0  0  0  0  0  0  0  0  0  0  0  0
    3.6619    1.8300    0.1366 H   0  0  0  0  0  0  0  0  0  0  0  0
    4.9243    0.7404    0.7638 H   0  0  0  0  0  0  0  0  0  0  0  0
    3.7901   -2.7710    0.2604 H   0  0  0  0  0  0  0  0  0  0  0  0
    2.9237   -2.9462   -1.2760 H   0  0  0  0  0  0  0  0  0  0  0  0
    4.4765   -2.1017   -1.2309 H   0  0  0  0  0  0  0  0  0  0  0  0
    0.0432    0.2781    0.8368 H   0  0  0  0  0  0  0  0  0  0  0  0
   -1.0704   -0.9206    1.4980 H   0  0  0  0  0  0  0  0  0  0  0  0
   -1.6745   -1.7208   -0.7893 H   0  0  0  0  0  0  0  0  0  0  0  0
   -0.4788   -0.6971   -1.5384 H   0  0  0  0  0  0  0  0  0  0  0  0
   -2.6055    0.1058   -1.7537 H   0  0  0  0  0  0  0  0  0  0  0  0
   -0.4237    1.4554   -1.3510 H   0  0  0  0  0  0  0  0  0  0  0  0
   -2.0019    1.6788   -3.2226 H   0  0  0  0  0  0  0  0  0  0  0  0
   -3.0882    2.6666   -2.2336 H   0  0  0  0  0  0  0  0  0  0  0  0
   -1.4732    3.2531   -2.6239 H   0  0  0  0  0  0  0  0  0  0  0  0
   -1.0970    2.1416    0.9962 H   0  0  0  0  0  0  0  0  0  0  0  0
   -2.4399    3.0610    0.3046 H   0  0  0  0  0  0  0  0  0  0  0  0
   -0.7866    3.4807   -0.1035 H   0  0  0  0  0  0  0  0  0  0  0  0
   -2.9993    0.7135    1.0954 H   0  0  0  0  0  0  0  0  0  0  0  0
   -4.1358   -1.5628   -0.6368 H   0  0  0  0  0  0  0  0  0  0  0  0
   -4.8020   -1.0912    0.9333 H   0  0  0  0  0  0  0  0  0  0  0  0
   -3.1762   -1.7344    0.8493 H   0  0  0  0  0  0  0  0  0  0  0  0
   -4.8036    0.8798   -1.4088 H   0  0  0  0  0  0  0  0  0  0  0  0
   -4.2711    2.2500   -0.4202 H   0  0  0  0  0  0  0  0  0  0  0  0
   -5.3948    1.0884    0.2448 H   0  0  0  0  0  0  0  0  0  0  0  0
  1  2  1  0
  2  3  1  0
  4  3  1  1
  4  5  1  0
  4  6  2  0
  4  7  1  0
  7  8  1  0
  8  9  1  0
  9 10  1  0
 10 11  1  0
 11 12  1  0
 11 13  1  0
 10 14  1  0
 14 15  1  0
 14 16  1  0
  1 17  1  0
  1 18  1  0
  1 19  1  0
  2 20  1  0
  2 21  1  0
  5 22  1  0
  5 23  1  0
  5 24  1  0
  8 25  1  0
  8 26  1  0
  9 27  1  0
  9 28  1  0
 10 29  1  6
 11 30  1  1
 12 31  1  0
 12 32  1  0
 12 33  1  0
 13 34  1  0
 13 35  1  0
 13 36  1  0
 14 37  1  6
 15 38  1  0
 15 39  1  0
 15 40  1  0
 16 41  1  0
 16 42  1  0
 16 43  1  0
M  CHG  1  10   1
M  END
$$$$
