VX
     RDKit          3D

 43 42  0  0  0  0  0  0  0  0999 V2000
    3.6771    2.1219    2.0041 C   0  0  0  0  0  0  0  0  0  0  0  0
    3.9985    1.0716    0.9679 C   0  0  0  0  0  0  0  0  0  0  0  0
    2.9826    0.0817    0.9843 O   0  0  0  0  0  0  0  0  0  0  0  0
    2.6956   -0.7439   -0.3813 P   0  0  2  0  0  0  0  0  0  0  0  0
    3.5459   -2.2770   -0.6887 C   0  0  0  0  0  0  0  0  0  0  0  0
    1.7100   -0.2141   -1.3895 O   0  0  0  0  0  0  0  0  0  0  0  0
    0.9589   -1.9234    0.6968 S   0  0  0  0  0  0  0  0  0  0  0  0
   -0.4391   -0.7645    0.6115 C   0  0  0  0  0  0  0  0  0  0  0  0
   -0.2745    0.3630    1.6324 C   0  0  0  0  0  0  0  0  0  0  0  0
   -1.3580    1.4497    1.5886 N   0  0  1  0  0  0  0  0  0  0  0  0
   -1.0535    2.7007    0.7450 C   0  0  2  0  0  0  0  0  0  0  0  0
   -0.4718    2.3730   -0.6261 C   0  0  0  0  0  0  0  0  0  0  0  0
   -0.1200    3.6215    1.5407 C   0  0  0  0  0  0  0  0  0  0  0  0
   -2.8066    0.9353    1.5752 C   0  0  2  0  0  0  0  0  0  0  0  0
   -3.3810    0.7903    0.1684 C   0  0  0  0  0  0  0  0  0  0  0  0
   -3.6728    1.8656    2.4233 C   0  0  0  0  0  0  0  0  0  0  0  0
    4.4215    2.9226    1.9918 H   0  0  0  0  0  0  0  0  0  0  0  0
    3.6613    1.6890    3.0035 H   0  0  0  0  0  0  0  0  0  0  0  0
    2.6878    2.5581    1.8167 H   0  0  0  0  0  0  0  0  0  0  0  0
    4.9550    0.5945    1.1936 H   0  0  0  0  0  0  0  0  0  0  0  0
    4.0621    1.5399   -0.0221 H   0  0  0  0  0  0  0  0  0  0  0  0
    3.7895   -2.8019    0.2384 H   0  0  0  0  0  0  0  0  0  0  0  0
    2.9226   -2.9344   -1.2994 H   0  0  0  0  0  0  0  0  0  0  0  0
    4.4767   -2.1014   -1.2301 H   0  0  0  0  0  0  0  0  0  0  0  0
   -0.5185   -0.3922   -0.4156 H   0  0  0  0  0  0  0  0  0  0  0  0
   -1.3382   -1.3439    0.8209 H   0  0  0  0  0  0  0  0  0  0  0  0
    0.6898    0.8735    1.5482 H   0  0  0  0  0  0  0  0  0  0  0  0
   -0.3305   -0.0550    2.6461 H   0  0  0  0  0  0  0  0  0  0  0  0
   -1.2765    1.8140    2.5459 H   0  0  0  0  0  0  0  0  0  0  0  0
   -1.9985    3.2354    0.6108 H   0  0  0  0  0  0  0  0  0  0  0  0
    0.5129    1.9105   -0.5550 H   0  0  0  0  0  0  0  0  0  0  0  0
   -0.3499    3.2977   -1.2135 H   0  0  0  0  0  0  0  0  0  0  0  0
   -1.1250    1.7114   -1.2061 H   0  0  0  0  0  0  0  0  0  0  0  0
    0.1025    4.5327    0.9649 H   0  0  0  0  0  0  0  0  0  0  0  0
   -0.5849    3.9330    2.4858 H   0  0  0  0  0  0  0  0  0  0  0  0
    0.8263    3.1379    1.7778 H   0  0  0  0  0  0  0  0  0  0  0  0
   -2.7865   -0.0416    2.0716 H   0  0  0  0  0  0  0  0  0  0  0  0
   -3.4756    1.7569   -0.3437 H   0  0  0  0  0  0  0  0  0  0  0  0
   -4.3873    0.3579    0.2156 H   0  0  0  0  0  0  0  0  0  0  0  0
   -2.7823    0.1282   -0.4604 H   0  0  0  0  0  0  0  0  0  0  0  0
   -3.7176    2.8809    2.0112 H   0  0  0  0  0  0  0  0  0  0  0  0
   -3.2901    1.9303    3.4450 H   0  0  0  0  0  0  0  0  0  0  0  0
   -4.7025    1.4855    2.4768 H   0  0  0  0  0  0  0  0  0  0  0  0
  1  2  1  0
  2  3  1  0
  4  3  1  1
  4  5  1  0
  4  6  2  0
  4  7  1  0
  7  8  1  0
  8  9  1  0
  9 10  1  0
 10 11  1  0
 11 12  1  0
 11 13  1  0
 10 14  1  0
 14 15  1  0
 14 16  1  0
  1 17  1  0
  1 18  1  0
  1 19  1  0
  2 20  1  0
  2 21  1  0
  5 22  1  0
  5 23  1  0
  5 24  1  0
  8 25  1  0
  8 26  1  0
  9 27  1  0
  9 28  1  0
 10 29  1  6
 11 30  1  6
 12 31  1  0
 12 32  1  0
 12 33  1  0
 13 34  1  0
 13 35  1  0
 13 36  1  0
 14 37  1  6
 15 38  1  0
 15 39  1  0
 15 40  1  0
 16 41  1  0
 16 42  1  0
 16 43  1  0
M  CHG  1  10   1
M  END
$$$$
