VX
     RDKit          3D

 43 42  0  0  0  0  0  0  0  0999 V2000
    3.9284    1.8242    2.2961 C   0  0  0  0  0  0  0  0  0  0  0  0
    3.9211    1.1412    0.9439 C   0  0  0  0  0  0  0  0  0  0  0  0
    2.9875    0.0729    0.9826 O   0  0  0  0  0  0  0  0  0  0  0  0
    2.6919   -0.7390   -0.3819 P   0  0  2  0  0  0  0  0  0  0  0  0
    3.5466   -2.2724   -0.6827 C   0  0  0  0  0  0  0  0  0  0  0  0
    1.7083   -0.2149   -1.3932 O   0  0  0  0  0  0  0  0  0  0  0  0
    0.9551   -1.9184    0.6961 S   0  0  0  0  0  0  0  0  0  0  0  0
   -0.3526   -0.6600    0.8231 C   0  0  0  0  0  0  0  0  0  0  0  0
   -1.1297   -0.5513   -0.4920 C   0  0  0  0  0  0  0  0  0  0  0  0
   -1.8864    0.7738   -0.6940 N   0  0  1  0  0  0  0  0  0  0  0  0
   -3.2801    0.8170   -0.0656 C   0  0  1  0  0  0  0  0  0  0  0  0
   -3.3046    0.9903    1.4460 C   0  0  0  0  0  0  0  0  0  0  0  0
   -4.1625    1.8463   -0.7657 C   0  0  0  0  0  0  0  0  0  0  0  0
   -0.9500    1.9921   -0.7645 C   0  0  1  0  0  0  0  0  0  0  0  0
   -1.2189    2.7924   -2.0398 C   0  0  0  0  0  0  0  0  0  0  0  0
   -0.9771    2.8761    0.4708 C   0  0  0  0  0  0  0  0  0  0  0  0
    2.9380    2.2334    2.5269 H   0  0  0  0  0  0  0  0  0  0  0  0
    4.6598    2.6378    2.3164 H   0  0  0  0  0  0  0  0  0  0  0  0
    4.1706    1.1105    3.0910 H   0  0  0  0  0  0  0  0  0  0  0  0
    4.9174    0.7500    0.7169 H   0  0  0  0  0  0  0  0  0  0  0  0
    3.6305    1.8542    0.1658 H   0  0  0  0  0  0  0  0  0  0  0  0
    4.4821   -2.1033   -1.2222 H   0  0  0  0  0  0  0  0  0  0  0  0
    3.7785   -2.7796    0.2584 H   0  0  0  0  0  0  0  0  0  0  0  0
    2.9271   -2.9417   -1.2863 H   0  0  0  0  0  0  0  0  0  0  0  0
   -1.0138   -0.9729    1.6336 H   0  0  0  0  0  0  0  0  0  0  0  0
    0.1227    0.2789    1.1119 H   0  0  0  0  0  0  0  0  0  0  0  0
   -1.8705   -1.3558   -0.5703 H   0  0  0  0  0  0  0  0  0  0  0  0
   -0.4849   -0.6375   -1.3713 H   0  0  0  0  0  0  0  0  0  0  0  0
   -2.1360    0.6579   -1.6853 H   0  0  0  0  0  0  0  0  0  0  0  0
   -3.7114   -0.1671   -0.2901 H   0  0  0  0  0  0  0  0  0  0  0  0
   -3.0658    2.0047    1.7675 H   0  0  0  0  0  0  0  0  0  0  0  0
   -4.3170    0.7887    1.8165 H   0  0  0  0  0  0  0  0  0  0  0  0
   -2.6428    0.2977    1.9632 H   0  0  0  0  0  0  0  0  0  0  0  0
   -4.1480    1.7095   -1.8527 H   0  0  0  0  0  0  0  0  0  0  0  0
   -5.2022    1.7362   -0.4383 H   0  0  0  0  0  0  0  0  0  0  0  0
   -3.8625    2.8723   -0.5369 H   0  0  0  0  0  0  0  0  0  0  0  0
    0.0617    1.5873   -0.8641 H   0  0  0  0  0  0  0  0  0  0  0  0
   -2.1979    3.2781   -2.0309 H   0  0  0  0  0  0  0  0  0  0  0  0
   -0.4661    3.5799   -2.1522 H   0  0  0  0  0  0  0  0  0  0  0  0
   -1.1602    2.1555   -2.9284 H   0  0  0  0  0  0  0  0  0  0  0  0
   -1.9068    3.4454    0.5516 H   0  0  0  0  0  0  0  0  0  0  0  0
   -0.1657    3.6102    0.4184 H   0  0  0  0  0  0  0  0  0  0  0  0
   -0.8245    2.3053    1.3898 H   0  0  0  0  0  0  0  0  0  0  0  0
  1  2  1  0
  2  3  1  0
  4  3  1  1
  4  5  1  0
  4  6  2  0
  4  7  1  0
  7  8  1  0
  8  9  1  0
  9 10  1  0
 10 11  1  0
 11 12  1  0
 11 13  1  0
 10 14  1  0
 14 15  1  0
 14 16  1  0
  1 17  1  0
  1 18  1  0
  1 19  1  0
  2 20  1  0
  2 21  1  0
  5 22  1  0
  5 23  1  0
  5 24  1  0
  8 25  1  0
  8 26  1  0
  9 27  1  0
  9 28  1  0
 10 29  1  1
 11 30  1  6
 12 31  1  0
 12 32  1  0
 12 33  1  0
 13 34  1  0
 13 35  1  0
 13 36  1  0
 14 37  1  6
 15 38  1  0
 15 39  1  0
 15 40  1  0
 16 41  1  0
 16 42  1  0
 16 43  1  0
M  CHG  1  10   1
M  END
$$$$
