VX
     RDKit          3D

 43 42  0  0  0  0  0  0  0  0999 V2000
    5.4400    1.1773   -1.0538 C   0  0  0  0  0  0  0  0  0  0  0  0
    4.7964    0.2645   -0.0306 C   0  0  0  0  0  0  0  0  0  0  0  0
    3.7448    0.9747    0.6078 O   0  0  0  0  0  0  0  0  0  0  0  0
    2.6986    0.1363    1.5139 P   0  0  2  0  0  0  0  0  0  0  0  0
    2.9494   -0.0162    3.2688 C   0  0  0  0  0  0  0  0  0  0  0  0
    1.5102   -0.5152    0.8655 O   0  0  0  0  0  0  0  0  0  0  0  0
    1.4322    2.0965    1.8653 S   0  0  0  0  0  0  0  0  0  0  0  0
    0.2846    2.1085    0.4572 C   0  0  0  0  0  0  0  0  0  0  0  0
    1.0320    2.0686   -0.8802 C   0  0  0  0  0  0  0  0  0  0  0  0
    0.1015    2.3191   -2.0795 N   0  0  1  0  0  0  0  0  0  0  0  0
    0.8956    2.8653   -3.2824 C   0  0  1  0  0  0  0  0  0  0  0  0
    1.7000    1.7754   -3.9792 C   0  0  0  0  0  0  0  0  0  0  0  0
   -0.0395    3.6062   -4.2377 C   0  0  0  0  0  0  0  0  0  0  0  0
   -0.9127    1.2117   -2.4265 C   0  0  2  0  0  0  0  0  0  0  0  0
   -2.2537    1.5288   -1.7669 C   0  0  0  0  0  0  0  0  0  0  0  0
   -0.4246   -0.1929   -2.0907 C   0  0  0  0  0  0  0  0  0  0  0  0
    6.2578    0.6678   -1.5714 H   0  0  0  0  0  0  0  0  0  0  0  0
    4.7032    1.5074   -1.7937 H   0  0  0  0  0  0  0  0  0  0  0  0
    5.8334    2.0789   -0.5723 H   0  0  0  0  0  0  0  0  0  0  0  0
    5.5331   -0.0387    0.7187 H   0  0  0  0  0  0  0  0  0  0  0  0
    4.3990   -0.6282   -0.5229 H   0  0  0  0  0  0  0  0  0  0  0  0
    1.9891   -0.1086    3.7847 H   0  0  0  0  0  0  0  0  0  0  0  0
    3.5438   -0.9029    3.5047 H   0  0  0  0  0  0  0  0  0  0  0  0
    3.4685    0.8609    3.6650 H   0  0  0  0  0  0  0  0  0  0  0  0
   -0.3218    3.0172    0.5289 H   0  0  0  0  0  0  0  0  0  0  0  0
   -0.3818    1.2516    0.5691 H   0  0  0  0  0  0  0  0  0  0  0  0
    1.7697    2.8793   -0.8945 H   0  0  0  0  0  0  0  0  0  0  0  0
    1.5584    1.1297   -1.0614 H   0  0  0  0  0  0  0  0  0  0  0  0
   -0.4631    3.1291   -1.7923 H   0  0  0  0  0  0  0  0  0  0  0  0
    1.5853    3.6112   -2.8698 H   0  0  0  0  0  0  0  0  0  0  0  0
    2.3678    1.2585   -3.2834 H   0  0  0  0  0  0  0  0  0  0  0  0
    1.0583    1.0311   -4.4604 H   0  0  0  0  0  0  0  0  0  0  0  0
    2.3261    2.2153   -4.7635 H   0  0  0  0  0  0  0  0  0  0  0  0
   -0.6562    4.3359   -3.7034 H   0  0  0  0  0  0  0  0  0  0  0  0
    0.5463    4.1536   -4.9846 H   0  0  0  0  0  0  0  0  0  0  0  0
   -0.7035    2.9315   -4.7847 H   0  0  0  0  0  0  0  0  0  0  0  0
   -1.0731    1.2582   -3.5067 H   0  0  0  0  0  0  0  0  0  0  0  0
   -3.0132    0.8065   -2.0860 H   0  0  0  0  0  0  0  0  0  0  0  0
   -2.6074    2.5245   -2.0554 H   0  0  0  0  0  0  0  0  0  0  0  0
   -2.2038    1.4893   -0.6763 H   0  0  0  0  0  0  0  0  0  0  0  0
   -1.1218   -0.9350   -2.4966 H   0  0  0  0  0  0  0  0  0  0  0  0
   -0.3724   -0.3691   -1.0134 H   0  0  0  0  0  0  0  0  0  0  0  0
    0.5564   -0.4017   -2.5260 H   0  0  0  0  0  0  0  0  0  0  0  0
  1  2  1  0
  2  3  1  0
  4  3  1  6
  4  5  1  0
  4  6  2  0
  4  7  1  0
  7  8  1  0
  8  9  1  0
  9 10  1  0
 10 11  1  0
 11 12  1  0
 11 13  1  0
 10 14  1  0
 14 15  1  0
 14 16  1  0
  1 17  1  0
  1 18  1  0
  1 19  1  0
  2 20  1  0
  2 21  1  0
  5 22  1  0
  5 23  1  0
  5 24  1  0
  8 25  1  0
  8 26  1  0
  9 27  1  0
  9 28  1  0
 10 29  1  6
 11 30  1  1
 12 31  1  0
 12 32  1  0
 12 33  1  0
 13 34  1  0
 13 35  1  0
 13 36  1  0
 14 37  1  1
 15 38  1  0
 15 39  1  0
 15 40  1  0
 16 41  1  0
 16 42  1  0
 16 43  1  0
M  CHG  1  10   1
M  END
$$$$
