VX
     RDKit          3D

 43 42  0  0  0  0  0  0  0  0999 V2000
    4.0291    1.7571    2.3112 C   0  0  0  0  0  0  0  0  0  0  0  0
    3.8464    1.2003    0.9144 C   0  0  0  0  0  0  0  0  0  0  0  0
    2.9930    0.0675    0.9855 O   0  0  0  0  0  0  0  0  0  0  0  0
    2.6875   -0.7349   -0.3846 P   0  0  2  0  0  0  0  0  0  0  0  0
    3.5466   -2.2687   -0.6786 C   0  0  0  0  0  0  0  0  0  0  0  0
    1.7071   -0.2172   -1.3976 O   0  0  0  0  0  0  0  0  0  0  0  0
    0.9508   -1.9143    0.6935 S   0  0  0  0  0  0  0  0  0  0  0  0
   -0.3395   -0.6507    0.8067 C   0  0  0  0  0  0  0  0  0  0  0  0
   -1.6391   -1.2549    1.3325 C   0  0  0  0  0  0  0  0  0  0  0  0
   -2.7487   -0.1658    1.3832 N   0  0  2  0  0  0  0  0  0  0  0  0
   -3.1776    0.1416    2.8335 C   0  0  1  0  0  0  0  0  0  0  0  0
   -1.9618    0.6466    3.6257 C   0  0  0  0  0  0  0  0  0  0  0  0
   -4.2521    1.2235    2.8971 C   0  0  0  0  0  0  0  0  0  0  0  0
   -3.8276   -0.4997    0.3359 C   0  0  2  0  0  0  0  0  0  0  0  0
   -4.4893    0.7586   -0.2179 C   0  0  0  0  0  0  0  0  0  0  0  0
   -4.8176   -1.5378    0.8491 C   0  0  0  0  0  0  0  0  0  0  0  0
    4.6784    2.6367    2.2991 H   0  0  0  0  0  0  0  0  0  0  0  0
    4.4678    1.0033    2.9730 H   0  0  0  0  0  0  0  0  0  0  0  0
    3.0628    2.0371    2.7442 H   0  0  0  0  0  0  0  0  0  0  0  0
    3.3910    1.9556    0.2667 H   0  0  0  0  0  0  0  0  0  0  0  0
    4.8143    0.9095    0.4965 H   0  0  0  0  0  0  0  0  0  0  0  0
    4.4847   -2.0979   -1.2131 H   0  0  0  0  0  0  0  0  0  0  0  0
    3.7758   -2.7729    0.2648 H   0  0  0  0  0  0  0  0  0  0  0  0
    2.9310   -2.9401   -1.2846 H   0  0  0  0  0  0  0  0  0  0  0  0
   -0.5049   -0.2239   -0.1876 H   0  0  0  0  0  0  0  0  0  0  0  0
    0.0138    0.1523    1.4607 H   0  0  0  0  0  0  0  0  0  0  0  0
   -1.5317   -1.6815    2.3347 H   0  0  0  0  0  0  0  0  0  0  0  0
   -1.9847   -2.0653    0.6809 H   0  0  0  0  0  0  0  0  0  0  0  0
   -2.3180    0.7057    1.0451 H   0  0  0  0  0  0  0  0  0  0  0  0
   -3.5491   -0.7948    3.2646 H   0  0  0  0  0  0  0  0  0  0  0  0
   -1.5127    1.5245    3.1477 H   0  0  0  0  0  0  0  0  0  0  0  0
   -1.1846   -0.1138    3.7363 H   0  0  0  0  0  0  0  0  0  0  0  0
   -2.2568    0.9344    4.6411 H   0  0  0  0  0  0  0  0  0  0  0  0
   -4.4104    1.5486    3.9322 H   0  0  0  0  0  0  0  0  0  0  0  0
   -5.2213    0.8584    2.5527 H   0  0  0  0  0  0  0  0  0  0  0  0
   -3.9724    2.1080    2.3155 H   0  0  0  0  0  0  0  0  0  0  0  0
   -3.2795   -0.9312   -0.5118 H   0  0  0  0  0  0  0  0  0  0  0  0
   -3.7513    1.5347   -0.4450 H   0  0  0  0  0  0  0  0  0  0  0  0
   -5.2441    1.1798    0.4481 H   0  0  0  0  0  0  0  0  0  0  0  0
   -5.0073    0.5187   -1.1541 H   0  0  0  0  0  0  0  0  0  0  0  0
   -5.4764   -1.8615    0.0357 H   0  0  0  0  0  0  0  0  0  0  0  0
   -5.4583   -1.1496    1.6451 H   0  0  0  0  0  0  0  0  0  0  0  0
   -4.3065   -2.4276    1.2304 H   0  0  0  0  0  0  0  0  0  0  0  0
  1  2  1  0
  2  3  1  0
  4  3  1  1
  4  5  1  0
  4  6  2  0
  4  7  1  0
  7  8  1  0
  8  9  1  0
  9 10  1  0
 10 11  1  0
 11 12  1  0
 11 13  1  0
 10 14  1  0
 14 15  1  0
 14 16  1  0
  1 17  1  0
  1 18  1  0
  1 19  1  0
  2 20  1  0
  2 21  1  0
  5 22  1  0
  5 23  1  0
  5 24  1  0
  8 25  1  0
  8 26  1  0
  9 27  1  0
  9 28  1  0
 10 29  1  6
 11 30  1  6
 12 31  1  0
 12 32  1  0
 12 33  1  0
 13 34  1  0
 13 35  1  0
 13 36  1  0
 14 37  1  1
 15 38  1  0
 15 39  1  0
 15 40  1  0
 16 41  1  0
 16 42  1  0
 16 43  1  0
M  CHG  1  10   1
M  END
$$$$
