VX
     RDKit          3D

 43 42  0  0  0  0  0  0  0  0999 V2000
    3.9251    1.8197    2.3002 C   0  0  0  0  0  0  0  0  0  0  0  0
    3.8883    1.1662    0.9345 C   0  0  0  0  0  0  0  0  0  0  0  0
    2.9918    0.0667    0.9827 O   0  0  0  0  0  0  0  0  0  0  0  0
    2.6888   -0.7355   -0.3831 P   0  0  2  0  0  0  0  0  0  0  0  0
    3.5465   -2.2683   -0.6783 C   0  0  0  0  0  0  0  0  0  0  0  0
    1.7071   -0.2162   -1.3965 O   0  0  0  0  0  0  0  0  0  0  0  0
    0.9520   -1.9149    0.6950 S   0  0  0  0  0  0  0  0  0  0  0  0
   -0.1038   -2.4887   -0.6727 C   0  0  0  0  0  0  0  0  0  0  0  0
   -1.5384   -1.9637   -0.5299 C   0  0  0  0  0  0  0  0  0  0  0  0
   -1.5926   -0.4485   -0.2524 N   0  0  2  0  0  0  0  0  0  0  0  0
   -2.6843   -0.1092    0.7666 C   0  0  1  0  0  0  0  0  0  0  0  0
   -2.5992    1.3292    1.2545 C   0  0  0  0  0  0  0  0  0  0  0  0
   -4.0902   -0.4740    0.2984 C   0  0  0  0  0  0  0  0  0  0  0  0
   -1.3751    0.3833   -1.5240 C   0  0  2  0  0  0  0  0  0  0  0  0
   -0.6798    1.7082   -1.2168 C   0  0  0  0  0  0  0  0  0  0  0  0
   -2.6439    0.5803   -2.3390 C   0  0  0  0  0  0  0  0  0  0  0  0
    4.6157    2.6680    2.3088 H   0  0  0  0  0  0  0  0  0  0  0  0
    4.2422    1.1004    3.0623 H   0  0  0  0  0  0  0  0  0  0  0  0
    2.9285    2.1710    2.5872 H   0  0  0  0  0  0  0  0  0  0  0  0
    3.5485    1.8849    0.1827 H   0  0  0  0  0  0  0  0  0  0  0  0
    4.8859    0.8117    0.6612 H   0  0  0  0  0  0  0  0  0  0  0  0
    3.7938   -2.7629    0.2657 H   0  0  0  0  0  0  0  0  0  0  0  0
    2.9249   -2.9483   -1.2674 H   0  0  0  0  0  0  0  0  0  0  0  0
    4.4745   -2.0982   -1.2306 H   0  0  0  0  0  0  0  0  0  0  0  0
   -0.1154   -3.5834   -0.6624 H   0  0  0  0  0  0  0  0  0  0  0  0
    0.3263   -2.1873   -1.6307 H   0  0  0  0  0  0  0  0  0  0  0  0
   -2.1317   -2.1640   -1.4270 H   0  0  0  0  0  0  0  0  0  0  0  0
   -2.0153   -2.4709    0.3164 H   0  0  0  0  0  0  0  0  0  0  0  0
   -0.7243   -0.2973    0.2860 H   0  0  0  0  0  0  0  0  0  0  0  0
   -2.4469   -0.7441    1.6311 H   0  0  0  0  0  0  0  0  0  0  0  0
   -1.5759    1.6015    1.5310 H   0  0  0  0  0  0  0  0  0  0  0  0
   -2.9725    2.0364    0.5092 H   0  0  0  0  0  0  0  0  0  0  0  0
   -3.2220    1.4586    2.1470 H   0  0  0  0  0  0  0  0  0  0  0  0
   -4.1433   -1.4781   -0.1310 H   0  0  0  0  0  0  0  0  0  0  0  0
   -4.7768   -0.4545    1.1532 H   0  0  0  0  0  0  0  0  0  0  0  0
   -4.4894    0.2338   -0.4301 H   0  0  0  0  0  0  0  0  0  0  0  0
   -0.6809   -0.2044   -2.1334 H   0  0  0  0  0  0  0  0  0  0  0  0
    0.1136    1.5947   -0.4721 H   0  0  0  0  0  0  0  0  0  0  0  0
   -0.2203    2.1036   -2.1299 H   0  0  0  0  0  0  0  0  0  0  0  0
   -1.3730    2.4759   -0.8650 H   0  0  0  0  0  0  0  0  0  0  0  0
   -3.1838   -0.3588   -2.4919 H   0  0  0  0  0  0  0  0  0  0  0  0
   -3.3157    1.3099   -1.8793 H   0  0  0  0  0  0  0  0  0  0  0  0
   -2.3912    0.9735   -3.3306 H   0  0  0  0  0  0  0  0  0  0  0  0
  1  2  1  0
  2  3  1  0
  4  3  1  1
  4  5  1  0
  4  6  2  0
  4  7  1  0
  7  8  1  0
  8  9  1  0
  9 10  1  0
 10 11  1  0
 11 12  1  0
 11 13  1  0
 10 14  1  0
 14 15  1  0
 14 16  1  0
  1 17  1  0
  1 18  1  0
  1 19  1  0
  2 20  1  0
  2 21  1  0
  5 22  1  0
  5 23  1  0
  5 24  1  0
  8 25  1  0
  8 26  1  0
  9 27  1  0
  9 28  1  0
 10 29  1  1
 11 30  1  6
 12 31  1  0
 12 32  1  0
 12 33  1  0
 13 34  1  0
 13 35  1  0
 13 36  1  0
 14 37  1  1
 15 38  1  0
 15 39  1  0
 15 40  1  0
 16 41  1  0
 16 42  1  0
 16 43  1  0
M  CHG  1  10   1
M  END
$$$$
