ligand.pdb
 OpenBabel03071410353D

 53 56  0  0  1  0  0  0  0  0999 V2000
   21.2060    9.9350   63.0810 C   0  0  0  0  0  0  0  0  0  0  0  0
   21.2410    9.4460   64.5510 C   0  0  0  0  0  0  0  0  0  0  0  0
   22.0000    8.1250   64.6300 C   0  0  0  0  0  0  0  0  0  0  0  0
   21.7010    7.3010   65.5120 O   0  0  0  0  0  0  0  0  0  0  0  0
   23.1180    7.8720   63.7340 C   0  0  0  0  0  0  0  0  0  0  0  0
   23.4530    8.7270   62.7850 C   0  0  0  0  0  0  0  0  0  0  0  0
   24.6970    8.4430   61.9510 C   0  0  0  0  0  0  0  0  0  0  0  0
   24.4490    8.6370   60.4430 C   0  0  0  0  0  0  0  0  0  0  0  0
   23.7890    9.9970   60.0980 C   0  0  2  0  0  0  0  0  0  0  0  0
   22.4340   10.0950   60.8720 C   0  0  1  0  0  0  0  0  0  0  0  0
   22.6140   10.0230   62.4340 C   0  0  1  0  0  0  0  0  0  0  0  0
   21.6330   11.3540   60.4500 C   0  0  0  0  0  0  0  0  0  0  0  0
   21.4320   11.4340   58.9110 C   0  0  0  0  0  0  0  0  0  0  0  0
   22.7860   11.4040   58.1690 C   0  0  1  0  0  0  0  0  0  0  0  0
   23.4830   10.0600   58.5980 C   0  0  1  0  0  0  0  0  0  0  0  0
   24.6740    9.9180   57.6180 C   0  0  0  0  0  0  0  0  0  0  0  0
   24.0720   10.4500   56.2670 C   0  0  0  0  0  0  0  0  0  0  0  0
   22.7140   11.1490   56.6270 C   0  0  2  0  0  0  0  0  0  0  0  0
   23.6590   12.6770   58.4540 C   0  0  0  0  0  0  0  0  0  0  0  0
   23.4270   11.2460   63.0070 C   0  0  0  0  0  0  0  0  0  0  0  0
   22.3750   12.3880   55.7810 C   0  0  0  0  0  0  0  0  0  0  0  0
   23.2120   12.8760   55.0520 O   0  0  0  0  0  0  0  0  0  0  0  0
   21.0090   12.9760   55.8570 C   0  0  0  0  0  0  0  0  0  0  0  0
   20.6110    9.2540   62.5100 H   0  0  0  0  0  0  0  0  0  0  0  0
   20.7940   10.9220   63.0830 H   0  0  0  0  0  0  0  0  0  0  0  0
   20.2410    9.3040   64.9030 H   0  0  0  0  0  0  0  0  0  0  0  0
   21.7330   10.1770   65.1580 H   0  0  0  0  0  0  0  0  0  0  0  0
   23.6630    7.0020   63.8430 H   0  0  0  0  0  0  0  0  0  0  0  0
   25.4770    9.1080   62.2590 H   0  0  0  0  0  0  0  0  0  0  0  0
   24.9690    7.4200   62.1080 H   0  0  0  0  0  0  0  0  0  0  0  0
   25.3880    8.5770   59.9340 H   0  0  0  0  0  0  0  0  0  0  0  0
   23.7710    7.8690   60.1330 H   0  0  0  0  0  0  0  0  0  0  0  0
   24.4500   10.7940   60.3680 H   0  0  0  0  0  0  0  0  0  0  0  0
   21.8640    9.2320   60.5960 H   0  0  0  0  0  0  0  0  0  0  0  0
   20.6730   11.3260   60.9220 H   0  0  0  0  0  0  0  0  0  0  0  0
   22.1910   12.2150   60.7530 H   0  0  0  0  0  0  0  0  0  0  0  0
   20.8410   10.6010   58.5920 H   0  0  0  0  0  0  0  0  0  0  0  0
   20.9400   12.3560   58.6810 H   0  0  0  0  0  0  0  0  0  0  0  0
   22.8550    9.1980   58.5100 H   0  0  0  0  0  0  0  0  0  0  0  0
   25.5050   10.5140   57.9320 H   0  0  0  0  0  0  0  0  0  0  0  0
   25.0530    8.9200   57.5510 H   0  0  0  0  0  0  0  0  0  0  0  0
   24.7410   11.1530   55.8160 H   0  0  0  0  0  0  0  0  0  0  0  0
   23.9230    9.6520   55.5700 H   0  0  0  0  0  0  0  0  0  0  0  0
   21.8840   10.5210   56.3790 H   0  0  0  0  0  0  0  0  0  0  0  0
   24.5820   12.6040   57.9170 H   0  0  0  0  0  0  0  0  0  0  0  0
   23.8610   12.7440   59.5030 H   0  0  0  0  0  0  0  0  0  0  0  0
   23.1300   13.5510   58.1360 H   0  0  0  0  0  0  0  0  0  0  0  0
   24.3910   11.2820   62.5440 H   0  0  0  0  0  0  0  0  0  0  0  0
   23.5430   11.1330   64.0650 H   0  0  0  0  0  0  0  0  0  0  0  0
   22.8990   12.1530   62.8010 H   0  0  0  0  0  0  0  0  0  0  0  0
   20.9500   13.8250   55.2090 H   0  0  0  0  0  0  0  0  0  0  0  0
   20.8070   13.2800   56.8630 H   0  0  0  0  0  0  0  0  0  0  0  0
   20.2890   12.2450   55.5540 H   0  0  0  0  0  0  0  0  0  0  0  0
  1 25  1  0  0  0  0
  1  2  1  0  0  0  0
  2  3  1  0  0  0  0
  2 26  1  0  0  0  0
  2 27  1  0  0  0  0
  3  4  2  0  0  0  0
  5 28  1  0  0  0  0
  5  3  1  0  0  0  0
  6  5  2  0  0  0  0
  7 30  1  0  0  0  0
  7 29  1  0  0  0  0
  7  6  1  0  0  0  0
  8  7  1  0  0  0  0
  9 33  1  1  0  0  0
  9  8  1  0  0  0  0
  9 10  1  0  0  0  0
 10 34  1  6  0  0  0
 10 11  1  0  0  0  0
 11  6  1  0  0  0  0
 11 20  1  1  0  0  0
 11  1  1  0  0  0  0
 12 36  1  0  0  0  0
 12 10  1  0  0  0  0
 12 35  1  0  0  0  0
 13 12  1  0  0  0  0
 14 19  1  1  0  0  0
 14 15  1  0  0  0  0
 14 13  1  0  0  0  0
 15 39  1  6  0  0  0
 15  9  1  0  0  0  0
 16 40  1  0  0  0  0
 16 15  1  0  0  0  0
 17 18  1  0  0  0  0
 17 16  1  0  0  0  0
 18 44  1  6  0  0  0
 18 14  1  0  0  0  0
 19 46  1  0  0  0  0
 20 49  1  0  0  0  0
 21 23  1  0  0  0  0
 21 18  1  0  0  0  0
 22 21  2  0  0  0  0
 23 52  1  0  0  0  0
 24  1  1  0  0  0  0
 31  8  1  0  0  0  0
 32  8  1  0  0  0  0
 37 13  1  0  0  0  0
 38 13  1  0  0  0  0
 41 16  1  0  0  0  0
 42 17  1  0  0  0  0
 43 17  1  0  0  0  0
 45 19  1  0  0  0  0
 47 19  1  0  0  0  0
 48 20  1  0  0  0  0
 50 20  1  0  0  0  0
 51 23  1  0  0  0  0
 53 23  1  0  0  0  0
M  END
