
     RDKit          3D

 26 27  0  0  0  0  0  0  0  0999 V2000
   -3.0447    0.4051    1.0240 C   0  0  0  0  0  0  0  0  0  0  0  0
   -2.6493   -0.9146    0.7852 C   0  0  0  0  0  0  0  0  0  0  0  0
   -1.4270   -1.1226    0.1328 C   0  0  0  0  0  0  0  0  0  0  0  0
   -0.6040   -0.0754   -0.2833 C   0  0  0  0  0  0  0  0  0  0  0  0
   -1.0310    1.2462   -0.0461 C   0  0  0  0  0  0  0  0  0  0  0  0
   -2.2437    1.4607    0.6099 C   0  0  0  0  0  0  0  0  0  0  0  0
   -2.6071    2.7574    0.8291 O   0  0  0  0  0  0  0  0  0  0  0  0
    0.5578   -0.6582   -0.8854 C   0  0  0  0  0  0  0  0  0  0  0  0
    0.3904   -2.0287   -0.8340 C   0  0  0  0  0  0  0  0  0  0  0  0
   -0.8171   -2.2963   -0.2428 N   0  0  0  0  0  0  0  0  0  0  0  0
    1.7384    0.0664   -1.4532 C   0  0  0  0  0  0  0  0  0  0  0  0
    2.5078    0.8787   -0.4081 C   0  0  0  0  0  0  0  0  0  0  0  0
    2.8150    0.0524    0.7912 N   0  0  0  0  0  0  0  0  0  0  0  0
   -3.9899    0.5853    1.5295 H   0  0  0  0  0  0  0  0  0  0  0  0
   -3.2795   -1.7446    1.0919 H   0  0  0  0  0  0  0  0  0  0  0  0
   -0.4525    2.1030   -0.3756 H   0  0  0  0  0  0  0  0  0  0  0  0
   -3.5097    2.7751    1.1927 H   0  0  0  0  0  0  0  0  0  0  0  0
    1.0056   -2.8439   -1.1957 H   0  0  0  0  0  0  0  0  0  0  0  0
   -1.2158   -3.2178   -0.1088 H   0  0  0  0  0  0  0  0  0  0  0  0
    2.4221   -0.6586   -1.9132 H   0  0  0  0  0  0  0  0  0  0  0  0
    1.4054    0.7334   -2.2573 H   0  0  0  0  0  0  0  0  0  0  0  0
    3.4634    1.2306   -0.8079 H   0  0  0  0  0  0  0  0  0  0  0  0
    1.9357    1.7387   -0.0492 H   0  0  0  0  0  0  0  0  0  0  0  0
    1.9386   -0.2641    1.2349 H   0  0  0  0  0  0  0  0  0  0  0  0
    3.3412    0.5824    1.4960 H   0  0  0  0  0  0  0  0  0  0  0  0
    3.3498   -0.7907    0.5501 H   0  0  0  0  0  0  0  0  0  0  0  0
  1  2  2  0
  2  3  1  0
  3  4  2  0
  4  5  1  0
  5  6  2  0
  6  7  1  0
  4  8  1  0
  8  9  2  0
  9 10  1  0
  8 11  1  0
 11 12  1  0
 12 13  1  0
  6  1  1  0
 10  3  1  0
  1 14  1  0
  2 15  1  0
  5 16  1  0
  7 17  1  0
  9 18  1  0
 10 19  1  0
 11 20  1  0
 11 21  1  0
 12 22  1  0
 12 23  1  0
 13 24  1  0
 13 25  1  0
 13 26  1  0
M  CHG  1  13   1
M  END

